version 3
run General-0-20210527-15:00:47-345228
attr configname General
attr datetime 20210527-15:00:47
attr datetimef 20210527-150047
attr experiment General
attr inifile omnetpp.ini
attr iterationvars ""
attr iterationvarsd ""
attr iterationvarsf ""
attr measurement ""
attr network Scenario
attr processid 345228
attr repetition 0
attr replication #0
attr resultdir results
attr runnumber 0
attr seedset 0
config image-path ../../../../../../../../../../../opt/omnetpp/samples/inet4.3/images:../../../../veins/images
config network Scenario
config *.node[*].numApps 1
config *.node[*].app[0].typename wireless.VeinsApplication
config *.node[*].app[0].interface "\"wlan0\""
config *.manager.updateInterval 0.02s
config *.manager.host "\"localhost\""
config *.manager.port 9999
config *.manager.autoShutdown true
config *.manager.launchConfig "xmldoc(\"straight.launchd.xml\")"
config *.manager.moduleType "\"wireless.veins_inet.VeinsInetCar\""
config *.node[*].mobility.typename VeinsInetMobility
config *.node[*].wlan[0].opMode "\"p\""
config *.node[*].wlan[0].radio.typename Ieee80211DimensionalRadio
config *.node[*].wlan[0].radio.bandName "\"5.9 GHz\""
config *.node[*].wlan[0].radio.channelNumber 3
config *.node[*].wlan[0].radio.transmitter.power 20mW
config *.node[*].wlan[0].radio.bandwidth "10 MHz"
config *.node[*].wlan[*].radio.antenna.mobility.typename AttachedMobility
config *.node[*].wlan[*].radio.antenna.mobility.mobilityModule "\"^.^.^.^.mobility\""
config *.node[*].wlan[*].radio.antenna.mobility.offsetX -2.5m
config *.node[*].wlan[*].radio.antenna.mobility.offsetZ 1.5m
config *.node[*].wlan[*].radio.antenna.mobility.constraintAreaMinX 0m
config *.node[*].wlan[*].radio.antenna.mobility.constraintAreaMaxX 0m
config *.node[*].wlan[*].radio.antenna.mobility.constraintAreaMinY 0m
config *.node[*].wlan[*].radio.antenna.mobility.constraintAreaMaxY 0m
config *.node[*].wlan[*].radio.antenna.mobility.constraintAreaMinZ 0m
config *.node[*].wlan[*].radio.antenna.mobility.constraintAreaMaxZ 0m
config *.node[*].ipv4.configurator.typename HostAutoConfigurator
config *.node[*].ipv4.configurator.interfaces "\"wlan0\""
config *.node[*].ipv4.configurator.mcastGroups "\"224.0.0.1\""

par Scenario.radioMedium.propagation typename "\"inet.physicallayer.wireless.common.propagation.ConstantSpeedPropagation\""
par Scenario.radioMedium.propagation propagationSpeed 2.99792e+08mps
attr unit mps
par Scenario.radioMedium.propagation ignoreMovementDuringTransmission true
par Scenario.radioMedium.propagation ignoreMovementDuringPropagation true
par Scenario.radioMedium.propagation ignoreMovementDuringReception true
scalar Scenario.radioMedium.propagation "Arrival computation count" 110
par Scenario.radioMedium.analogModel typename "\"inet.physicallayer.wireless.common.analogmodel.packetlevel.DimensionalAnalogModel\""
par Scenario.radioMedium.analogModel attenuateWithCenterFrequency true
par Scenario.radioMedium.backgroundNoise typename "\"inet.physicallayer.wireless.common.backgroundnoise.IsotropicDimensionalBackgroundNoise\""
par Scenario.radioMedium.backgroundNoise powerSpectralDensity "nan dBmWpMHz"
attr unit dBmWpMHz
par Scenario.radioMedium.backgroundNoise power -110dBm
attr unit dBm
par Scenario.radioMedium.backgroundNoise bandwidth "nan Hz"
attr unit Hz
par Scenario.radioMedium.pathLoss typename "\"inet.physicallayer.wireless.common.pathloss.FreeSpacePathLoss\""
par Scenario.radioMedium.pathLoss alpha 2
par Scenario.radioMedium.pathLoss systemLoss 0dB
attr unit dB
par Scenario.radioMedium.mediumLimitCache typename "\"inet.physicallayer.wireless.common.medium.MediumLimitCache\""
par Scenario.radioMedium.mediumLimitCache centerFrequency 2.4e+09Hz
attr unit Hz
par Scenario.radioMedium.mediumLimitCache maxSpeed "nan mps"
attr unit mps
par Scenario.radioMedium.mediumLimitCache maxTransmissionPower "nan W"
attr unit W
par Scenario.radioMedium.mediumLimitCache minInterferencePower -110dBm
attr unit dBm
par Scenario.radioMedium.mediumLimitCache minReceptionPower -85dBm
attr unit dBm
par Scenario.radioMedium.mediumLimitCache maxAntennaGain 0dB
attr unit dB
par Scenario.radioMedium.mediumLimitCache minInterferenceTime 1e-12s
attr unit s
par Scenario.radioMedium.mediumLimitCache maxTransmissionDuration 0.01s
attr unit s
par Scenario.radioMedium.mediumLimitCache maxCommunicationRange "nan m"
attr unit m
par Scenario.radioMedium.mediumLimitCache maxInterferenceRange "nan m"
attr unit m
par Scenario.radioMedium.communicationCache typename "\"inet.physicallayer.wireless.common.communicationcache.VectorCommunicationCache\""
par Scenario.radioMedium typename "\"inet.physicallayer.wireless.ieee80211.packetlevel.Ieee80211DimensionalRadioMedium\""
par Scenario.radioMedium physicalEnvironmentModule "\"physicalEnvironment\""
par Scenario.radioMedium signalAnalogRepresentation "\"scalar\""
attr enum unitDisk,scalar,dimensional
par Scenario.radioMedium rangeFilter "\"\""
par Scenario.radioMedium radioModeFilter false
par Scenario.radioMedium listeningFilter false
par Scenario.radioMedium macAddressFilter false
par Scenario.radioMedium recordTransmissionLog false
par Scenario.radioMedium recordReceptionLog false
scalar Scenario.radioMedium "transmission count" 12
scalar Scenario.radioMedium "signal send count" 108
scalar Scenario.radioMedium "reception computation count" 108
scalar Scenario.radioMedium "interference computation count" 326
scalar Scenario.radioMedium "reception decision computation count" 93
scalar Scenario.radioMedium "listening decision computation count" 125
scalar Scenario.radioMedium "reception cache hit" 84.48275862069
attr unit %
scalar Scenario.radioMedium "interference cache hit" 66.666666666667
attr unit %
scalar Scenario.radioMedium "noise cache hit" 0
attr unit %
scalar Scenario.radioMedium "snir cache hit" 50
attr unit %
scalar Scenario.radioMedium "reception decision cache hit" 50
attr unit %
scalar Scenario.radioMedium "reception result cache hit" 0
attr unit %
par Scenario.manager typename "\"wireless.veins_inet.VeinsInetManager\""
par Scenario.manager connectAt 0s
attr unit s
par Scenario.manager firstStepAt -1s
attr unit s
par Scenario.manager updateInterval 0.02s
attr unit s
par Scenario.manager moduleType "\"wireless.veins_inet.VeinsInetCar\""
par Scenario.manager moduleName "\"node\""
par Scenario.manager moduleDisplayString "\"*='i=veins/node/car;is=vs'\""
par Scenario.manager trafficLightModuleType "\"\""
par Scenario.manager trafficLightModuleName "\"tls\""
par Scenario.manager trafficLightFilter "\"\""
par Scenario.manager trafficLightModuleDisplayString "\"i=misc/node2;is=vs;r=0,,#707070,1\""
par Scenario.manager host "\"localhost\""
par Scenario.manager port 9999
par Scenario.manager seed -1
par Scenario.manager autoShutdown true
par Scenario.manager margin 25
par Scenario.manager roiRoads "\"\""
par Scenario.manager roiRects "\"\""
par Scenario.manager penetrationRate 1
par Scenario.manager ignoreGuiCommands false
par Scenario.manager launchConfig "<launch>...</launch> at /media/hdd2/Study/MSc/2020-2021/2B/AHN/OMNeTpp/wireless/simulations/straight/straight.launchd.xml:3"
par Scenario.node[0].radioIn[0].channel typename "\"ned.IdealChannel\""
par Scenario.node[0].mobility typename "\"wireless.veins_inet.VeinsInetMobility\""
par Scenario.node[0].mobility subjectModule "\"^\""
par Scenario.node[0].mobility coordinateSystemModule "\"\""
par Scenario.node[0].mobility displayStringTextFormat "\"p: %p\\nv: %v\""
par Scenario.node[0].mobility updateDisplayString true
par Scenario.node[0].mobility constraintAreaMinX "-inf m"
attr unit m
par Scenario.node[0].mobility constraintAreaMinY "-inf m"
attr unit m
par Scenario.node[0].mobility constraintAreaMinZ "-inf m"
attr unit m
par Scenario.node[0].mobility constraintAreaMaxX "inf m"
attr unit m
par Scenario.node[0].mobility constraintAreaMaxY "inf m"
attr unit m
par Scenario.node[0].mobility constraintAreaMaxZ "inf m"
attr unit m
par Scenario.node[0].mobility initFromDisplayString true
par Scenario.node[0].interfaceTable typename "\"inet.networklayer.common.InterfaceTable\""
par Scenario.node[0].interfaceTable displayAddresses false
par Scenario.node[0].li typename "\"inet.common.MessageDispatcher\""
par Scenario.node[0].li displayStringTextFormat "\"processed %p pk (%l)\""
par Scenario.node[0].lo[0].upperLayerIn.channel typename "\"ned.IdealChannel\""
par Scenario.node[0].lo[0].lo.upperLayerOut.channel typename "\"ned.IdealChannel\""
par Scenario.node[0].lo[0].lo typename "\"inet.linklayer.loopback.Loopback\""
par Scenario.node[0].lo[0].lo interfaceTableModule "\"Scenario.node[0].interfaceTable\""
par Scenario.node[0].lo[0].lo mtu 4470B
attr unit B
scalar Scenario.node[0].lo[0].lo rcvdPkFromHl:count 3
attr interpolationmode none
attr source packetReceivedFromUpper
attr title "packets received from higher layer, count"
scalar Scenario.node[0].lo[0].lo rcvdPkFromHl:sum(packetBytes) 1584
attr interpolationmode none
attr source packetReceivedFromUpper
attr title "packets received from higher layer, sum(packetBytes)"
scalar Scenario.node[0].lo[0].lo passedUpPk:count 3
attr interpolationmode none
attr source packetSentToUpper
attr title "packets passed to higher layer, count"
scalar Scenario.node[0].lo[0].lo passedUpPk:sum(packetBytes) 1584
attr interpolationmode none
attr source packetSentToUpper
attr title "packets passed to higher layer, sum(packetBytes)"
par Scenario.node[0].lo[0] typename "\"inet.linklayer.loopback.LoopbackInterface\""
par Scenario.node[0].lo[0] displayStringTextFormat "\"%a (%i)\\n%m\""
par Scenario.node[0].lo[0] recordPcap false
par Scenario.node[0].lo[0] numPcapRecorders 0
par Scenario.node[0].lo[0] interfaceTableModule "\"Scenario.node[0].interfaceTable\""
par Scenario.node[0].wlan[0].radioIn.channel typename "\"ned.IdealChannel\""
par Scenario.node[0].wlan[0].llc.upperLayerOut.channel typename "\"ned.IdealChannel\""
par Scenario.node[0].wlan[0].upperLayerIn.channel typename "\"ned.IdealChannel\""
par Scenario.node[0].wlan[0].mib typename "\"inet.linklayer.ieee80211.mib.Ieee80211Mib\""
par Scenario.node[0].wlan[0].llc typename "\"inet.linklayer.ieee80211.llc.Ieee80211LlcEpd\""
par Scenario.node[0].wlan[0].mgmt typename "\"inet.linklayer.ieee80211.mgmt.Ieee80211MgmtAdhoc\""
par Scenario.node[0].wlan[0].mgmt mibModule "\"Scenario.node[0].wlan[0].mib\""
par Scenario.node[0].wlan[0].mgmt macModule "\"Scenario.node[0].wlan[0].mac\""
par Scenario.node[0].wlan[0].mgmt interfaceTableModule "\"Scenario.node[0].interfaceTable\""
par Scenario.node[0].wlan[0].mac.dcf.channelAccess.pendingQueue typename "\"inet.linklayer.ieee80211.mac.queue.PendingQueue\""
par Scenario.node[0].wlan[0].mac.dcf.channelAccess.pendingQueue displayStringTextFormat "\"contains %p pk (%l) pushed %u\\npulled %o removed %r dropped %d\""
par Scenario.node[0].wlan[0].mac.dcf.channelAccess.pendingQueue packetCapacity 100
par Scenario.node[0].wlan[0].mac.dcf.channelAccess.pendingQueue dataCapacity -1b
attr unit b
par Scenario.node[0].wlan[0].mac.dcf.channelAccess.pendingQueue dropperClass "\"inet::queueing::PacketAtCollectionEndDropper\""
par Scenario.node[0].wlan[0].mac.dcf.channelAccess.pendingQueue comparatorClass "\"inet::ieee80211::MgmtOverDataComparator\""
par Scenario.node[0].wlan[0].mac.dcf.channelAccess.pendingQueue bufferModule "\"\""
scalar Scenario.node[0].wlan[0].mac.dcf.channelAccess.pendingQueue packetPulled:count 3
attr interpolationmode none
attr title "packet pulled, count"
scalar Scenario.node[0].wlan[0].mac.dcf.channelAccess.pendingQueue packetPulled:sum(packetBytes) 1674
attr interpolationmode none
attr title "packet pulled, sum(packetBytes)"
statistic Scenario.node[0].wlan[0].mac.dcf.channelAccess.pendingQueue queueingTime:histogram
field count 3
field mean 0
field stddev 0
field min 0
field max 0
field sum 0
field sqrsum 0
attr interpolationmode none
attr source queueingTime(packetPulled)
attr title "queueing times, histogram"
attr unit s
bin	-inf	0
bin	-0.5	0
bin	-0.48	0
bin	-0.46	0
bin	-0.44	0
bin	-0.42	0
bin	-0.4	0
bin	-0.38	0
bin	-0.36	0
bin	-0.34	0
bin	-0.32	0
bin	-0.3	0
bin	-0.28	0
bin	-0.26	0
bin	-0.24	0
bin	-0.22	0
bin	-0.2	0
bin	-0.18	0
bin	-0.16	0
bin	-0.14	0
bin	-0.12	0
bin	-0.1	0
bin	-0.08	0
bin	-0.06	0
bin	-0.04	0
bin	-0.02	0
bin	0	3
bin	0.02	0
bin	0.04	0
bin	0.06	0
bin	0.08	0
bin	0.1	0
bin	0.12	0
bin	0.14	0
bin	0.16	0
bin	0.18	0
bin	0.2	0
bin	0.22	0
bin	0.24	0
bin	0.26	0
bin	0.28	0
bin	0.3	0
bin	0.32	0
bin	0.34	0
bin	0.36	0
bin	0.38	0
bin	0.4	0
bin	0.42	0
bin	0.44	0
bin	0.46	0
bin	0.48	0
bin	0.5	0
scalar Scenario.node[0].wlan[0].mac.dcf.channelAccess.pendingQueue queueLength:max 1
attr autoWarmupFilter false
attr interpolationmode sample-hold
attr source "warmup(count(packetPushed) - count(packetPulled) - count(packetRemoved) - count(packetDropped))"
attr title "queue length, max"
attr type int
scalar Scenario.node[0].wlan[0].mac.dcf.channelAccess.pendingQueue queueLength:timeavg 0
attr autoWarmupFilter false
attr interpolationmode sample-hold
attr source "warmup(count(packetPushed) - count(packetPulled) - count(packetRemoved) - count(packetDropped))"
attr title "queue length, timeavg"
attr type int
scalar Scenario.node[0].wlan[0].mac.dcf.channelAccess.pendingQueue packetPushed:count 3
attr interpolationmode none
attr title "packet pushed, count"
scalar Scenario.node[0].wlan[0].mac.dcf.channelAccess.pendingQueue packetPushed:sum(packetBytes) 1674
attr interpolationmode none
attr title "packet pushed, sum(packetBytes)"
scalar Scenario.node[0].wlan[0].mac.dcf.channelAccess.pendingQueue packetDropQueueOverflow:count 0
attr interpolationmode none
attr source packetDropReasonIsQueueOverflow(packetDropped)
attr title "packet drops: queue overflow, count"
scalar Scenario.node[0].wlan[0].mac.dcf.channelAccess.pendingQueue packetDropQueueOverflow:sum(packetBytes) 0
attr interpolationmode none
attr source packetDropReasonIsQueueOverflow(packetDropped)
attr title "packet drops: queue overflow, sum(packetBytes)"
scalar Scenario.node[0].wlan[0].mac.dcf.channelAccess.pendingQueue packetRemoved:count 0
attr interpolationmode none
attr title "packets removed, count"
scalar Scenario.node[0].wlan[0].mac.dcf.channelAccess.pendingQueue packetRemoved:sum(packetBytes) 0
attr interpolationmode none
attr title "packets removed, sum(packetBytes)"
par Scenario.node[0].wlan[0].mac.dcf.channelAccess.inProgressFrames typename "\"inet.linklayer.ieee80211.mac.queue.InProgressFrames\""
par Scenario.node[0].wlan[0].mac.dcf.channelAccess.inProgressFrames pendingQueueModule "\"^.pendingQueue\""
par Scenario.node[0].wlan[0].mac.dcf.channelAccess.inProgressFrames originatorMacDataServiceModule "\"^.^.originatorMacDataService\""
par Scenario.node[0].wlan[0].mac.dcf.channelAccess.inProgressFrames ackHandlerModule "\"^.^.ackHandler\""
statistic Scenario.node[0].wlan[0].mac.dcf.channelAccess.inProgressFrames queueingTime:histogram
field count 3
field mean 0.000416
field stddev 0
field min 0.000416
field max 0.000416
field sum 0.001248
field sqrsum 5.19168e-07
attr interpolationmode none
attr source queueingTime(packetDequeued)
attr title "queueing times, histogram"
bin	-inf	0
bin	0	3
bin	0.01	0
bin	0.02	0
bin	0.03	0
bin	0.04	0
bin	0.05	0
bin	0.06	0
bin	0.07	0
bin	0.08	0
bin	0.09	0
bin	0.1	0
bin	0.11	0
bin	0.12	0
bin	0.13	0
bin	0.14	0
bin	0.15	0
bin	0.16	0
bin	0.17	0
bin	0.18	0
bin	0.19	0
bin	0.2	0
bin	0.21	0
bin	0.22	0
bin	0.23	0
bin	0.24	0
bin	0.25	0
bin	0.26	0
bin	0.27	0
bin	0.28	0
bin	0.29	0
bin	0.3	0
bin	0.31	0
bin	0.32	0
bin	0.33	0
bin	0.34	0
bin	0.35	0
bin	0.36	0
bin	0.37	0
bin	0.38	0
bin	0.39	0
bin	0.4	0
bin	0.41	0
bin	0.42	0
bin	0.43	0
bin	0.44	0
bin	0.45	0
bin	0.46	0
bin	0.47	0
bin	0.48	0
bin	0.49	0
bin	0.5	0
bin	0.51	0
scalar Scenario.node[0].wlan[0].mac.dcf.channelAccess.inProgressFrames queueLength:max 1
attr autoWarmupFilter false
attr interpolationmode sample-hold
attr source "warmup(count(packetEnqueued) - count(packetDequeued))"
attr title "queue length, max"
scalar Scenario.node[0].wlan[0].mac.dcf.channelAccess.inProgressFrames queueLength:timeavg 0.00022666116334542
attr autoWarmupFilter false
attr interpolationmode sample-hold
attr source "warmup(count(packetEnqueued) - count(packetDequeued))"
attr title "queue length, timeavg"
par Scenario.node[0].wlan[0].mac.dcf.channelAccess.contention typename "\"inet.linklayer.ieee80211.mac.contention.Contention\""
par Scenario.node[0].wlan[0].mac.dcf.channelAccess.contention initialChannelBusy true
par Scenario.node[0].wlan[0].mac.dcf.channelAccess.contention backoffOptimization true
scalar Scenario.node[0].wlan[0].mac.dcf.channelAccess.contention channelAccessGranted:count 3
attr title "channel access granted, count"
scalar Scenario.node[0].wlan[0].mac.dcf.channelAccess.contention stateChanged:count 60
attr enum IDLE,DEFER,IFS_AND_BACKOFF
attr interpolationmode none
attr title "contention state changed, count"
attr type enum
par Scenario.node[0].wlan[0].mac.dcf.channelAccess typename "\"inet.linklayer.ieee80211.mac.channelaccess.Dcaf\""
par Scenario.node[0].wlan[0].mac.dcf.channelAccess difsn -1
par Scenario.node[0].wlan[0].mac.dcf.channelAccess cwMin -1
par Scenario.node[0].wlan[0].mac.dcf.channelAccess cwMax -1
par Scenario.node[0].wlan[0].mac.dcf.channelAccess rxModule "\"^.^.rx\""
scalar Scenario.node[0].wlan[0].mac.dcf.channelAccess channelOwnershipChanged:count 6
attr interpolationmode sample-hold
attr title "channel ownership, count"
par Scenario.node[0].wlan[0].mac.dcf.originatorMacDataService.fragmentationPolicy typename "\"inet.linklayer.ieee80211.mac.fragmentation.BasicFragmentationPolicy\""
par Scenario.node[0].wlan[0].mac.dcf.originatorMacDataService.fragmentationPolicy fragmentationThreshold 1500B
attr unit B
par Scenario.node[0].wlan[0].mac.dcf.originatorMacDataService typename "\"inet.linklayer.ieee80211.mac.originator.OriginatorMacDataService\""
scalar Scenario.node[0].wlan[0].mac.dcf.originatorMacDataService packetAggregated:count 0
attr title "packets aggregated, count"
scalar Scenario.node[0].wlan[0].mac.dcf.originatorMacDataService packetFragmented:count 0
attr title "packets fragmented, count"
par Scenario.node[0].wlan[0].mac.dcf.recipientMacDataService typename "\"inet.linklayer.ieee80211.mac.recipient.RecipientMacDataService\""
scalar Scenario.node[0].wlan[0].mac.dcf.recipientMacDataService packetDeaggregated:count 0
attr title "packets deaggregated, count"
scalar Scenario.node[0].wlan[0].mac.dcf.recipientMacDataService packetDefragmented:count 8
attr title "packets defragmented, count"
scalar Scenario.node[0].wlan[0].mac.dcf.recipientMacDataService packetDropDuplicateDetected:count 0
attr interpolationmode none
attr source packetDropReasonIsDuplicateDetected(packetDropped)
attr title "packet drops: duplicate detected, count"
scalar Scenario.node[0].wlan[0].mac.dcf.recipientMacDataService packetDropDuplicateDetected:sum(packetBytes) 0
attr interpolationmode none
attr source packetDropReasonIsDuplicateDetected(packetDropped)
attr title "packet drops: duplicate detected, sum(packetBytes)"
par Scenario.node[0].wlan[0].mac.dcf.rateSelection typename "\"inet.linklayer.ieee80211.mac.rateselection.RateSelection\""
par Scenario.node[0].wlan[0].mac.dcf.rateSelection rateControlModule "\"^.rateControl\""
par Scenario.node[0].wlan[0].mac.dcf.rateSelection multicastFrameBitrate -1bps
attr unit bps
par Scenario.node[0].wlan[0].mac.dcf.rateSelection responseAckFrameBitrate -1bps
attr unit bps
par Scenario.node[0].wlan[0].mac.dcf.rateSelection responseCtsFrameBitrate -1bps
attr unit bps
par Scenario.node[0].wlan[0].mac.dcf.rateSelection dataFrameBitrate -1bps
attr unit bps
par Scenario.node[0].wlan[0].mac.dcf.rateSelection dataFrameBandwidth "nan Hz"
attr unit Hz
par Scenario.node[0].wlan[0].mac.dcf.rateSelection dataFrameNumSpatialStreams -1
par Scenario.node[0].wlan[0].mac.dcf.rateSelection mgmtFrameBitrate -1bps
attr unit bps
par Scenario.node[0].wlan[0].mac.dcf.rateSelection controlFrameBitrate -1bps
attr unit bps
par Scenario.node[0].wlan[0].mac.dcf.recoveryProcedure typename "\"inet.linklayer.ieee80211.mac.originator.NonQosRecoveryProcedure\""
par Scenario.node[0].wlan[0].mac.dcf.recoveryProcedure cwCalculatorModule "\"^.channelAccess\""
par Scenario.node[0].wlan[0].mac.dcf.recoveryProcedure rtsPolicyModule "\"^.rtsPolicy\""
par Scenario.node[0].wlan[0].mac.dcf.recoveryProcedure shortRetryLimit 7
par Scenario.node[0].wlan[0].mac.dcf.recoveryProcedure longRetryLimit 4
scalar Scenario.node[0].wlan[0].mac.dcf.recoveryProcedure retryLimitReached:count 0
attr title "retry limit reached, count"
par Scenario.node[0].wlan[0].mac.dcf.originatorProtectionMechanism typename "\"inet.linklayer.ieee80211.mac.protectionmechanism.OriginatorProtectionMechanism\""
par Scenario.node[0].wlan[0].mac.dcf.originatorProtectionMechanism rateSelectionModule "\"^.rateSelection\""
par Scenario.node[0].wlan[0].mac.dcf.ackHandler typename "\"inet.linklayer.ieee80211.mac.originator.AckHandler\""
par Scenario.node[0].wlan[0].mac.dcf.originatorAckPolicy typename "\"inet.linklayer.ieee80211.mac.originator.OriginatorAckPolicy\""
par Scenario.node[0].wlan[0].mac.dcf.originatorAckPolicy rateSelectionModule "\"^.rateSelection\""
par Scenario.node[0].wlan[0].mac.dcf.originatorAckPolicy ackTimeout -1s
attr unit s
par Scenario.node[0].wlan[0].mac.dcf.recipientAckPolicy typename "\"inet.linklayer.ieee80211.mac.recipient.RecipientAckPolicy\""
par Scenario.node[0].wlan[0].mac.dcf.recipientAckPolicy rateSelectionModule "\"^.rateSelection\""
par Scenario.node[0].wlan[0].mac.dcf.rtsPolicy typename "\"inet.linklayer.ieee80211.mac.originator.RtsPolicy\""
par Scenario.node[0].wlan[0].mac.dcf.rtsPolicy rateSelectionModule "\"^.rateSelection\""
par Scenario.node[0].wlan[0].mac.dcf.rtsPolicy ctsTimeout -1s
attr unit s
par Scenario.node[0].wlan[0].mac.dcf.rtsPolicy rtsThreshold 2346B
attr unit B
par Scenario.node[0].wlan[0].mac.dcf.ctsPolicy typename "\"inet.linklayer.ieee80211.mac.recipient.CtsPolicy\""
par Scenario.node[0].wlan[0].mac.dcf.ctsPolicy rxModule "\"^.^.rx\""
par Scenario.node[0].wlan[0].mac.dcf.ctsPolicy rateSelectionModule "\"^.rateSelection\""
par Scenario.node[0].wlan[0].mac.dcf typename "\"inet.linklayer.ieee80211.mac.coordinationfunction.Dcf\""
par Scenario.node[0].wlan[0].mac.dcf rxModule "\"^.rx\""
par Scenario.node[0].wlan[0].mac.dcf txModule "\"^.tx\""
scalar Scenario.node[0].wlan[0].mac.dcf frameSequenceFinished:count 3
attr title "finished frame sequences, count"
statistic Scenario.node[0].wlan[0].mac.dcf frameSequenceDuration:histogram
field count 3
field mean 0.000416
field stddev 0
field min 0.000416
field max 0.000416
field sum 0.001248
field sqrsum 5.19168e-07
attr source frameSequenceDuration(frameSequenceFinished)
attr title "frame sequence durations, histogram"
bin	-inf	0
bin	0	3
bin	0.01	0
bin	0.02	0
bin	0.03	0
bin	0.04	0
bin	0.05	0
bin	0.06	0
bin	0.07	0
bin	0.08	0
bin	0.09	0
bin	0.1	0
bin	0.11	0
bin	0.12	0
bin	0.13	0
bin	0.14	0
bin	0.15	0
bin	0.16	0
bin	0.17	0
bin	0.18	0
bin	0.19	0
bin	0.2	0
bin	0.21	0
bin	0.22	0
bin	0.23	0
bin	0.24	0
bin	0.25	0
bin	0.26	0
bin	0.27	0
bin	0.28	0
bin	0.29	0
bin	0.3	0
bin	0.31	0
bin	0.32	0
bin	0.33	0
bin	0.34	0
bin	0.35	0
bin	0.36	0
bin	0.37	0
bin	0.38	0
bin	0.39	0
bin	0.4	0
bin	0.41	0
bin	0.42	0
bin	0.43	0
bin	0.44	0
bin	0.45	0
bin	0.46	0
bin	0.47	0
bin	0.48	0
bin	0.49	0
bin	0.5	0
bin	0.51	0
statistic Scenario.node[0].wlan[0].mac.dcf frameSequenceNumPackets:histogram
field count 3
field mean 1
field stddev 0
field min 1
field max 1
field sum 3
field sqrsum 3
attr source frameSequenceNumPackets(frameSequenceFinished)
attr title "frame sequences: number of packets, histogram"
bin	-inf	0
bin	0	0
bin	1	3
bin	2	0
scalar Scenario.node[0].wlan[0].mac.dcf packetReceivedFromPeer:count 8
attr interpolationmode none
attr title "packets received, count"
scalar Scenario.node[0].wlan[0].mac.dcf packetReceivedFromPeer:sum(packetBytes) 4464
attr interpolationmode none
attr title "packets received, sum(packetBytes)"
scalar Scenario.node[0].wlan[0].mac.dcf packetReceivedFromPeerUnicast:count 0
attr interpolationmode none
attr source ieee80211Unicast(packetReceivedFromPeer)
attr title "packets received: unicast, count"
scalar Scenario.node[0].wlan[0].mac.dcf packetReceivedFromPeerUnicast:sum(packetBytes) 0
attr interpolationmode none
attr source ieee80211Unicast(packetReceivedFromPeer)
attr title "packets received: unicast, sum(packetBytes)"
scalar Scenario.node[0].wlan[0].mac.dcf packetReceivedFromPeerMulticast:count 8
attr interpolationmode none
attr source ieee80211Multicast(packetReceivedFromPeer)
attr title "packets received: multicast, count"
scalar Scenario.node[0].wlan[0].mac.dcf packetReceivedFromPeerMulticast:sum(packetBytes) 4464
attr interpolationmode none
attr source ieee80211Multicast(packetReceivedFromPeer)
attr title "packets received: multicast, sum(packetBytes)"
scalar Scenario.node[0].wlan[0].mac.dcf packetReceivedFromPeerBroadcast:count 0
attr interpolationmode none
attr source ieee80211Broadcast(packetReceivedFromPeer)
attr title "packets received: broadcast, count"
scalar Scenario.node[0].wlan[0].mac.dcf packetReceivedFromPeerBroadcast:sum(packetBytes) 0
attr interpolationmode none
attr source ieee80211Broadcast(packetReceivedFromPeer)
attr title "packets received: broadcast, sum(packetBytes)"
scalar Scenario.node[0].wlan[0].mac.dcf packetReceivedFromPeerWithRetry:count 0
attr interpolationmode none
attr source ieee80211Retry(packetReceivedFromPeer)
attr title "packets received: with retry, count"
scalar Scenario.node[0].wlan[0].mac.dcf packetReceivedFromPeerWithRetry:sum(packetBytes) 0
attr interpolationmode none
attr source ieee80211Retry(packetReceivedFromPeer)
attr title "packets received: with retry, sum(packetBytes)"
scalar Scenario.node[0].wlan[0].mac.dcf packetReceivedFromPeerWithoutRetry:count 8
attr interpolationmode none
attr source ieee80211NotRetry(packetReceivedFromPeer)
attr title "packets received: without retry, count"
scalar Scenario.node[0].wlan[0].mac.dcf packetReceivedFromPeerWithoutRetry:sum(packetBytes) 4464
attr interpolationmode none
attr source ieee80211NotRetry(packetReceivedFromPeer)
attr title "packets received: without retry, sum(packetBytes)"
scalar Scenario.node[0].wlan[0].mac.dcf packetSentToPeer:count 3
attr interpolationmode none
attr title "packets sent, count"
scalar Scenario.node[0].wlan[0].mac.dcf packetSentToPeer:sum(packetBytes) 1674
attr interpolationmode none
attr title "packets sent, sum(packetBytes)"
scalar Scenario.node[0].wlan[0].mac.dcf packetSentToPeerUnicast:count 0
attr interpolationmode none
attr source ieee80211Unicast(packetSentToPeer)
attr title "packets sent: unicast, count"
scalar Scenario.node[0].wlan[0].mac.dcf packetSentToPeerUnicast:sum(packetBytes) 0
attr interpolationmode none
attr source ieee80211Unicast(packetSentToPeer)
attr title "packets sent: unicast, sum(packetBytes)"
scalar Scenario.node[0].wlan[0].mac.dcf packetSentToPeerMulticast:count 3
attr interpolationmode none
attr source ieee80211Multicast(packetSentToPeer)
attr title "packets sent: multicast, count"
scalar Scenario.node[0].wlan[0].mac.dcf packetSentToPeerMulticast:sum(packetBytes) 1674
attr interpolationmode none
attr source ieee80211Multicast(packetSentToPeer)
attr title "packets sent: multicast, sum(packetBytes)"
scalar Scenario.node[0].wlan[0].mac.dcf packetSentToPeerBroadcast:count 0
attr interpolationmode none
attr source ieee80211Broadcast(packetSentToPeer)
attr title "packets sent: broadcast , count"
scalar Scenario.node[0].wlan[0].mac.dcf packetSentToPeerBroadcast:sum(packetBytes) 0
attr interpolationmode none
attr source ieee80211Broadcast(packetSentToPeer)
attr title "packets sent: broadcast , sum(packetBytes)"
scalar Scenario.node[0].wlan[0].mac.dcf packetSentToPeerWithRetry:count 0
attr interpolationmode none
attr source ieee80211Retry(packetSentToPeer)
attr title "packets sent: with retry, count"
scalar Scenario.node[0].wlan[0].mac.dcf packetSentToPeerWithRetry:sum(packetBytes) 0
attr interpolationmode none
attr source ieee80211Retry(packetSentToPeer)
attr title "packets sent: with retry, sum(packetBytes)"
scalar Scenario.node[0].wlan[0].mac.dcf packetSentToPeerWithoutRetry:count 3
attr interpolationmode none
attr source ieee80211NotRetry(packetSentToPeer)
attr title "packets sent: without retry, count"
scalar Scenario.node[0].wlan[0].mac.dcf packetSentToPeerWithoutRetry:sum(packetBytes) 1674
attr interpolationmode none
attr source ieee80211NotRetry(packetSentToPeer)
attr title "packets sent: without retry, sum(packetBytes)"
scalar Scenario.node[0].wlan[0].mac.dcf packetDrop:count 0
attr interpolationmode none
attr source packetDropped
attr title "packet drops, count"
scalar Scenario.node[0].wlan[0].mac.dcf packetDrop:sum(packetBytes) 0
attr interpolationmode none
attr source packetDropped
attr title "packet drops, sum(packetBytes)"
scalar Scenario.node[0].wlan[0].mac.dcf packetDropNotAddressedToUs:count 0
attr interpolationmode none
attr source packetDropReasonIsNotAddressedToUs(packetDropped)
attr title "packet drops: not addressed to us, count"
scalar Scenario.node[0].wlan[0].mac.dcf packetDropNotAddressedToUs:sum(packetBytes) 0
attr interpolationmode none
attr source packetDropReasonIsNotAddressedToUs(packetDropped)
attr title "packet drops: not addressed to us, sum(packetBytes)"
scalar Scenario.node[0].wlan[0].mac.dcf packetDropQueueOverflow:count 0
attr interpolationmode none
attr source packetDropReasonIsQueueOverflow(packetDropped)
attr title "packet drops: queue overflow, count"
scalar Scenario.node[0].wlan[0].mac.dcf packetDropQueueOverflow:sum(packetBytes) 0
attr interpolationmode none
attr source packetDropReasonIsQueueOverflow(packetDropped)
attr title "packet drops: queue overflow, sum(packetBytes)"
scalar Scenario.node[0].wlan[0].mac.dcf packetDropRetryLimitReached:count 0
attr interpolationmode none
attr source packetDropReasonIsRetryLimitReached(packetDropped)
attr title "packet drops: retry limit reached, count"
scalar Scenario.node[0].wlan[0].mac.dcf packetDropRetryLimitReached:sum(packetBytes) 0
attr interpolationmode none
attr source packetDropReasonIsRetryLimitReached(packetDropped)
attr title "packet drops: retry limit reached, sum(packetBytes)"
scalar Scenario.node[0].wlan[0].mac.dcf linkBroken:count 0
attr interpolationmode none
attr title "link breaks, count"
par Scenario.node[0].wlan[0].mac.ds typename "\"inet.linklayer.ieee80211.mac.Ds\""
par Scenario.node[0].wlan[0].mac.ds mibModule "\"Scenario.node[0].wlan[0].mib\""
par Scenario.node[0].wlan[0].mac.rx typename "\"inet.linklayer.ieee80211.mac.Rx\""
par Scenario.node[0].wlan[0].mac.tx typename "\"inet.linklayer.ieee80211.mac.Tx\""
par Scenario.node[0].wlan[0].mac.tx rxModule "\"^.rx\""
par Scenario.node[0].wlan[0].mac typename "\"inet.linklayer.ieee80211.mac.Ieee80211Mac\""
par Scenario.node[0].wlan[0].mac interfaceTableModule "\"Scenario.node[0].interfaceTable\""
par Scenario.node[0].wlan[0].mac mibModule "\"Scenario.node[0].wlan[0].mib\""
par Scenario.node[0].wlan[0].mac modeSet "\"p\""
attr enum a,b,g(erp),g(mixed),n(mixed-2.4Ghz),p,ac
par Scenario.node[0].wlan[0].mac fcsMode "\"declared\""
attr enum declared,computed
par Scenario.node[0].wlan[0].mac initialRadioMode "\"receiver\""
attr enum off,sleep,receiver,transmitter,transceiver
par Scenario.node[0].wlan[0].mac mtu 2304B
attr unit B
par Scenario.node[0].wlan[0].mac qosStation false
scalar Scenario.node[0].wlan[0].mac packetReceivedFromLower:count 8
attr interpolationmode none
attr title "packets received from lower layer, count"
scalar Scenario.node[0].wlan[0].mac packetReceivedFromLower:sum(packetBytes) 4464
attr interpolationmode none
attr title "packets received from lower layer, sum(packetBytes)"
scalar Scenario.node[0].wlan[0].mac packetSentToLower:count 3
attr interpolationmode none
attr title "packets sent to lower layer, count"
scalar Scenario.node[0].wlan[0].mac packetSentToLower:sum(packetBytes) 1674
attr interpolationmode none
attr title "packets sent to lower layer, sum(packetBytes)"
scalar Scenario.node[0].wlan[0].mac packetReceivedFromUpper:count 3
attr interpolationmode none
attr title "packets received from upper layer, count"
scalar Scenario.node[0].wlan[0].mac packetReceivedFromUpper:sum(packetBytes) 1590
attr interpolationmode none
attr title "packets received from upper layer, sum(packetBytes)"
scalar Scenario.node[0].wlan[0].mac packetSentToUpper:count 8
attr interpolationmode none
attr title "packets sent to upper layer, count"
scalar Scenario.node[0].wlan[0].mac packetSentToUpper:sum(packetBytes) 4240
attr interpolationmode none
attr title "packets sent to upper layer, sum(packetBytes)"
scalar Scenario.node[0].wlan[0].mac packetDrop:count 0
attr interpolationmode none
attr source packetDropped
attr title "packet drops, count"
scalar Scenario.node[0].wlan[0].mac packetDrop:sum(packetBytes) 0
attr interpolationmode none
attr source packetDropped
attr title "packet drops, sum(packetBytes)"
scalar Scenario.node[0].wlan[0].mac packetDropIncorrectlyReceived:count 0
attr interpolationmode none
attr source packetDropReasonIsIncorrectlyReceived(packetDropped)
attr title "packet drops: incorrectly received, count"
scalar Scenario.node[0].wlan[0].mac packetDropIncorrectlyReceived:sum(packetBytes) 0
attr interpolationmode none
attr source packetDropReasonIsIncorrectlyReceived(packetDropped)
attr title "packet drops: incorrectly received, sum(packetBytes)"
scalar Scenario.node[0].wlan[0].mac packetDropNotAddressedToUs:count 0
attr interpolationmode none
attr source packetDropReasonIsNotAddressedToUs(packetDropped)
attr title "packet drops: not addressed to us, count"
scalar Scenario.node[0].wlan[0].mac packetDropNotAddressedToUs:sum(packetBytes) 0
attr interpolationmode none
attr source packetDropReasonIsNotAddressedToUs(packetDropped)
attr title "packet drops: not addressed to us, sum(packetBytes)"
scalar Scenario.node[0].wlan[0].mac packetDropQueueOverflow:count 0
attr interpolationmode none
attr source packetDropReasonIsQueueOverflow(packetDropped)
attr title "packet drops: queue overflow, count"
scalar Scenario.node[0].wlan[0].mac packetDropQueueOverflow:sum(packetBytes) 0
attr interpolationmode none
attr source packetDropReasonIsQueueOverflow(packetDropped)
attr title "packet drops: queue overflow, sum(packetBytes)"
scalar Scenario.node[0].wlan[0].mac packetDropRetryLimitReached:count 0
attr interpolationmode none
attr source packetDropReasonIsRetryLimitReached(packetDropped)
attr title "packet drops: retry limit reached, count"
scalar Scenario.node[0].wlan[0].mac packetDropRetryLimitReached:sum(packetBytes) 0
attr interpolationmode none
attr source packetDropReasonIsRetryLimitReached(packetDropped)
attr title "packet drops: retry limit reached, sum(packetBytes)"
scalar Scenario.node[0].wlan[0].mac packetDropDuplicateDetected:count 0
attr interpolationmode none
attr source packetDropReasonIsDuplicateDetected(packetDropped)
attr title "packet drops: duplicate detected, count"
scalar Scenario.node[0].wlan[0].mac packetDropDuplicateDetected:sum(packetBytes) 0
attr interpolationmode none
attr source packetDropReasonIsDuplicateDetected(packetDropped)
attr title "packet drops: duplicate detected, sum(packetBytes)"
scalar Scenario.node[0].wlan[0].mac packetDropOther:count 0
attr interpolationmode none
attr source packetDropReasonIsOther(packetDropped)
attr title "packet drops: other, count"
scalar Scenario.node[0].wlan[0].mac packetDropOther:sum(packetBytes) 0
attr interpolationmode none
attr source packetDropReasonIsOther(packetDropped)
attr title "packet drops: other, sum(packetBytes)"
scalar Scenario.node[0].wlan[0].mac linkBroken:count 0
attr interpolationmode none
attr title "link breaks, count"
par Scenario.node[0].wlan[0].radio.antenna.mobility typename "\"inet.mobility.single.AttachedMobility\""
par Scenario.node[0].wlan[0].radio.antenna.mobility subjectModule "\"\""
par Scenario.node[0].wlan[0].radio.antenna.mobility coordinateSystemModule "\"\""
par Scenario.node[0].wlan[0].radio.antenna.mobility displayStringTextFormat "\"p: %p\\nv: %v\""
par Scenario.node[0].wlan[0].radio.antenna.mobility updateDisplayString true
par Scenario.node[0].wlan[0].radio.antenna.mobility constraintAreaMinX 0m
attr unit m
par Scenario.node[0].wlan[0].radio.antenna.mobility constraintAreaMinY 0m
attr unit m
par Scenario.node[0].wlan[0].radio.antenna.mobility constraintAreaMinZ 0m
attr unit m
par Scenario.node[0].wlan[0].radio.antenna.mobility constraintAreaMaxX 0m
attr unit m
par Scenario.node[0].wlan[0].radio.antenna.mobility constraintAreaMaxY 0m
attr unit m
par Scenario.node[0].wlan[0].radio.antenna.mobility constraintAreaMaxZ 0m
attr unit m
par Scenario.node[0].wlan[0].radio.antenna.mobility mobilityModule "\"^.^.^.^.mobility\""
par Scenario.node[0].wlan[0].radio.antenna.mobility offsetX -2.5m
attr unit m
par Scenario.node[0].wlan[0].radio.antenna.mobility offsetY 0m
attr unit m
par Scenario.node[0].wlan[0].radio.antenna.mobility offsetZ 1.5m
attr unit m
par Scenario.node[0].wlan[0].radio.antenna.mobility offsetHeading 0deg
attr unit deg
par Scenario.node[0].wlan[0].radio.antenna.mobility offsetElevation 0deg
attr unit deg
par Scenario.node[0].wlan[0].radio.antenna.mobility offsetBank 0deg
attr unit deg
par Scenario.node[0].wlan[0].radio.antenna typename "\"inet.physicallayer.wireless.common.antenna.IsotropicAntenna\""
par Scenario.node[0].wlan[0].radio.antenna mobilityModule "\"^.^.^.mobility\""
par Scenario.node[0].wlan[0].radio.antenna numAntennas 1
par Scenario.node[0].wlan[0].radio.transmitter typename "\"inet.physicallayer.wireless.ieee80211.packetlevel.Ieee80211DimensionalTransmitter\""
par Scenario.node[0].wlan[0].radio.transmitter preambleDuration "nan s"
attr unit s
par Scenario.node[0].wlan[0].radio.transmitter headerLength 192b
attr unit b
par Scenario.node[0].wlan[0].radio.transmitter bitrate -1bps
attr unit bps
par Scenario.node[0].wlan[0].radio.transmitter power 0.02W
attr unit W
par Scenario.node[0].wlan[0].radio.transmitter centerFrequency 2.412e+09Hz
attr unit Hz
par Scenario.node[0].wlan[0].radio.transmitter bandwidth 1e+07Hz
attr unit Hz
par Scenario.node[0].wlan[0].radio.transmitter modulation "\"BPSK\""
par Scenario.node[0].wlan[0].radio.transmitter gainFunctionCacheLimit 0
par Scenario.node[0].wlan[0].radio.transmitter timeGains "\"left s 0dB either e 0dB right\""
par Scenario.node[0].wlan[0].radio.transmitter timeGainsNormalization "\"\""
attr enum ,maximum,integral
par Scenario.node[0].wlan[0].radio.transmitter frequencyGains "\"left s 0dB either e 0dB right\""
par Scenario.node[0].wlan[0].radio.transmitter frequencyGainsNormalization "\"integral\""
attr enum ,maximum,integral
par Scenario.node[0].wlan[0].radio.transmitter opMode "\"p\""
attr enum a,b,g(erp),g(mixed),n(mixed-2.4Ghz),p,ac
par Scenario.node[0].wlan[0].radio.transmitter bandName "\"5.9 GHz\""
attr enum "2.4 GHz,5 GHz,5 GHz (20 MHz),5 GHz (40 MHz),5 GHz (80 MHz),5 GHz (160 MHz),5.9 GHz"
par Scenario.node[0].wlan[0].radio.transmitter channelNumber 3
par Scenario.node[0].wlan[0].radio.receiver.errorModel typename "\"inet.physicallayer.wireless.ieee80211.packetlevel.errormodel.Ieee80211NistErrorModel\""
par Scenario.node[0].wlan[0].radio.receiver.errorModel corruptionMode "\"packet\""
attr enum packet,chunk,byte,bit
par Scenario.node[0].wlan[0].radio.receiver.errorModel snirMode "\"min\""
attr unit min,mean
par Scenario.node[0].wlan[0].radio.receiver.errorModel snirOffset 0dB
attr unit dB
par Scenario.node[0].wlan[0].radio.receiver typename "\"inet.physicallayer.wireless.ieee80211.packetlevel.Ieee80211DimensionalReceiver\""
par Scenario.node[0].wlan[0].radio.receiver snirThreshold 4dB
attr unit dB
par Scenario.node[0].wlan[0].radio.receiver snirThresholdMode "\"min\""
attr unit min,mean
par Scenario.node[0].wlan[0].radio.receiver energyDetection -85dBm
attr unit dBm
par Scenario.node[0].wlan[0].radio.receiver sensitivity -85dBm
attr unit dBm
par Scenario.node[0].wlan[0].radio.receiver centerFrequency 2.412e+09Hz
attr unit Hz
par Scenario.node[0].wlan[0].radio.receiver bandwidth 2.2e+07Hz
attr unit Hz
par Scenario.node[0].wlan[0].radio.receiver modulation "\"BPSK\""
par Scenario.node[0].wlan[0].radio.receiver opMode "\"p\""
attr enum a,b,g(erp),g(mixed),n(mixed-2.4Ghz),p,ac
par Scenario.node[0].wlan[0].radio.receiver bandName "\"5.9 GHz\""
attr enum "2.4 GHz,5 GHz,5 GHz (20 MHz),5 GHz (40 MHz),5 GHz (80 MHz),5 GHz (160 MHz),5.9 GHz"
par Scenario.node[0].wlan[0].radio.receiver channelNumber 3
par Scenario.node[0].wlan[0].radio typename "\"inet.physicallayer.wireless.ieee80211.packetlevel.Ieee80211DimensionalRadio\""
par Scenario.node[0].wlan[0].radio radioMediumModule "\"radioMedium\""
par Scenario.node[0].wlan[0].radio energySourceModule "\"\""
par Scenario.node[0].wlan[0].radio initialRadioMode "\"off\""
attr enum off,sleep,receiver,transmitter,transceiver
par Scenario.node[0].wlan[0].radio switchingTimes "\"ms 0 0 0 0 0 0 0 0 0 0 0 0 0 0 0 0 0 0 0 0 0 0 0 0 0\""
par Scenario.node[0].wlan[0].radio sendRawBytes false
par Scenario.node[0].wlan[0].radio separateTransmissionParts false
par Scenario.node[0].wlan[0].radio separateReceptionParts false
par Scenario.node[0].wlan[0].radio displayCommunicationRange false
par Scenario.node[0].wlan[0].radio displayInterferenceRange false
par Scenario.node[0].wlan[0].radio centerFrequency 2.412e+09Hz
attr unit Hz
par Scenario.node[0].wlan[0].radio bandwidth 1e+07Hz
attr unit Hz
par Scenario.node[0].wlan[0].radio signalAnalogRepresentation "\"scalar\""
attr enum scalar,dimensional
par Scenario.node[0].wlan[0].radio opMode "\"p\""
attr enum a,b,g(erp),g(mixed),n(mixed-2.4Ghz),p,ac
par Scenario.node[0].wlan[0].radio bandName "\"5.9 GHz\""
attr enum "2.4 GHz,5 GHz,5 GHz (20 MHz),5 GHz (40 MHz),5 GHz (80 MHz),5 GHz (160 MHz),5.9 GHz"
par Scenario.node[0].wlan[0].radio channelNumber 3
par Scenario.node[0].wlan[0].radio crcMode "\"declared\""
attr enum declared,computed
statistic Scenario.node[0].wlan[0].radio radioChannel:histogram
field count 1
field mean 3
field stddev -nan
field min 3
field max 3
field sum 3
field sqrsum 9
attr interpolationmode sample-hold
attr source radioChannelChanged
attr title "Radio channel, histogram"
bin	-inf	0
bin	2	0
bin	3	1
bin	4	0
scalar Scenario.node[0].wlan[0].radio radioMode:count 9
attr interpolationmode sample-hold
attr source radioModeChanged
attr title "Radio mode, count"
scalar Scenario.node[0].wlan[0].radio receptionState:count 24
attr interpolationmode sample-hold
attr source receptionStateChanged
attr title "Radio reception state, count"
scalar Scenario.node[0].wlan[0].radio transmissionState:count 12
attr interpolationmode sample-hold
attr source transmissionStateChanged
attr title "Radio transmission state, count"
statistic Scenario.node[0].wlan[0].radio minSnir:histogram
field count 8
field mean 109513.47304426
field stddev 97614.533681959
field min 15753.36825871
field max 308270.5405456
field sum 876107.78435406
field sqrsum 162645786527.35
attr source minimumSnir(packetSentToUpper)
attr title "Min SNIR, histogram"
bin	-inf	0
bin	0	0
bin	5000	0
bin	10000	0
bin	15000	2
bin	20000	0
bin	25000	0
bin	30000	0
bin	35000	0
bin	40000	1
bin	45000	0
bin	50000	0
bin	55000	0
bin	60000	0
bin	65000	0
bin	70000	1
bin	75000	0
bin	80000	0
bin	85000	0
bin	90000	0
bin	95000	0
bin	100000	0
bin	105000	1
bin	110000	0
bin	115000	0
bin	120000	0
bin	125000	0
bin	130000	0
bin	135000	0
bin	140000	0
bin	145000	0
bin	150000	1
bin	155000	1
bin	160000	0
bin	165000	0
bin	170000	0
bin	175000	0
bin	180000	0
bin	185000	0
bin	190000	0
bin	195000	0
bin	200000	0
bin	205000	0
bin	210000	0
bin	215000	0
bin	220000	0
bin	225000	0
bin	230000	0
bin	235000	0
bin	240000	0
bin	245000	0
bin	250000	0
bin	255000	0
bin	260000	0
bin	265000	0
bin	270000	0
bin	275000	0
bin	280000	0
bin	285000	0
bin	290000	0
bin	295000	0
bin	300000	0
bin	305000	1
bin	310000	0
bin	315000	0
bin	320000	0
bin	325000	0
bin	330000	0
bin	335000	0
bin	340000	0
bin	345000	0
bin	350000	0
bin	355000	0
bin	360000	0
bin	365000	0
bin	370000	0
bin	375000	0
bin	380000	0
bin	385000	0
statistic Scenario.node[0].wlan[0].radio packetErrorRate:histogram
field count 8
field mean 0
field stddev 0
field min 0
field max 0
field sum 0
field sqrsum 0
attr source packetErrorRate(packetSentToUpper)
attr title "Packet error rate, histogram"
bin	-inf	0
bin	-0.5	0
bin	-0.48	0
bin	-0.46	0
bin	-0.44	0
bin	-0.42	0
bin	-0.4	0
bin	-0.38	0
bin	-0.36	0
bin	-0.34	0
bin	-0.32	0
bin	-0.3	0
bin	-0.28	0
bin	-0.26	0
bin	-0.24	0
bin	-0.22	0
bin	-0.2	0
bin	-0.18	0
bin	-0.16	0
bin	-0.14	0
bin	-0.12	0
bin	-0.1	0
bin	-0.08	0
bin	-0.06	0
bin	-0.04	0
bin	-0.02	0
bin	0	8
bin	0.02	0
bin	0.04	0
bin	0.06	0
bin	0.08	0
bin	0.1	0
bin	0.12	0
bin	0.14	0
bin	0.16	0
bin	0.18	0
bin	0.2	0
bin	0.22	0
bin	0.24	0
bin	0.26	0
bin	0.28	0
bin	0.3	0
bin	0.32	0
bin	0.34	0
bin	0.36	0
bin	0.38	0
bin	0.4	0
bin	0.42	0
bin	0.44	0
bin	0.46	0
bin	0.48	0
bin	0.5	0
statistic Scenario.node[0].wlan[0].radio bitErrorRate:histogram
field count 0
field mean -nan
field stddev -nan
field min -nan
field max -nan
field sum 0
field sqrsum 0
attr source bitErrorRate(packetSentToUpper)
attr title "Bit error rate, histogram"
bin	-inf	0
bin	0	0
bin	1	0
statistic Scenario.node[0].wlan[0].radio symbolErrorRate:histogram
field count 0
field mean -nan
field stddev -nan
field min -nan
field max -nan
field sum 0
field sqrsum 0
attr source symbolErrorRate(packetSentToUpper)
attr title "Symbol error rate, histogram"
bin	-inf	0
bin	0	0
bin	1	0
par Scenario.node[0].wlan[0] typename "\"inet.linklayer.ieee80211.Ieee80211Interface\""
par Scenario.node[0].wlan[0] displayStringTextFormat "\"%a (%i)\\n%m\""
par Scenario.node[0].wlan[0] recordPcap false
par Scenario.node[0].wlan[0] numPcapRecorders 0
par Scenario.node[0].wlan[0] interfaceTableModule "\"Scenario.node[0].interfaceTable\""
par Scenario.node[0].wlan[0] energySourceModule "\"\""
par Scenario.node[0].wlan[0] opMode "\"p\""
attr enum a,b,g(erp),g(mixed),n(mixed-2.4Ghz),p,ac
par Scenario.node[0].wlan[0] address "\"0A-AA-00-00-00-01\""
par Scenario.node[0].wlan[0] bitrate -1bps
attr unit bps
par Scenario.node[0].ipv4.transportIn.channel typename "\"ned.IdealChannel\""
par Scenario.node[0].ipv4.up.out[0].channel typename "\"ned.IdealChannel\""
par Scenario.node[0].ipv4.lp.out[2].channel typename "\"ned.IdealChannel\""
par Scenario.node[0].ipv4.ifIn.channel typename "\"ned.IdealChannel\""
par Scenario.node[0].ipv4.configurator typename "\"inet.networklayer.configurator.ipv4.HostAutoConfigurator\""
par Scenario.node[0].ipv4.configurator interfaceTableModule "\"Scenario.node[0].interfaceTable\""
par Scenario.node[0].ipv4.configurator interfaces "\"wlan0\""
par Scenario.node[0].ipv4.configurator addressBase "\"10.0.0.0\""
par Scenario.node[0].ipv4.configurator netmask "\"255.0.0.0\""
par Scenario.node[0].ipv4.configurator mcastGroups "\"224.0.0.1\""
par Scenario.node[0].ipv4.routingTable typename "\"inet.networklayer.ipv4.Ipv4RoutingTable\""
par Scenario.node[0].ipv4.routingTable interfaceTableModule "\"Scenario.node[0].interfaceTable\""
par Scenario.node[0].ipv4.routingTable routerId "\"auto\""
par Scenario.node[0].ipv4.routingTable netmaskRoutes "\"*\""
par Scenario.node[0].ipv4.routingTable forwarding true
par Scenario.node[0].ipv4.routingTable multicastForwarding false
par Scenario.node[0].ipv4.routingTable useAdminDist false
par Scenario.node[0].ipv4.routingTable routingFile "\"\""
par Scenario.node[0].ipv4.natTable typename "\"inet.networklayer.ipv4.Ipv4NatTable\""
par Scenario.node[0].ipv4.natTable networkProtocolModule "\"^.ip\""
par Scenario.node[0].ipv4.natTable config "<config/> at content:1"
par Scenario.node[0].ipv4.up typename "\"inet.common.MessageDispatcher\""
par Scenario.node[0].ipv4.up displayStringTextFormat "\"processed %p pk (%l)\""
par Scenario.node[0].ipv4.igmp typename "\"inet.networklayer.ipv4.Igmpv2\""
par Scenario.node[0].ipv4.igmp interfaceTableModule "\"Scenario.node[0].interfaceTable\""
par Scenario.node[0].ipv4.igmp routingTableModule "\"Scenario.node[0].ipv4.routingTable\""
par Scenario.node[0].ipv4.igmp crcMode "\"declared\""
attr enum declared,computed
par Scenario.node[0].ipv4.igmp enabled true
par Scenario.node[0].ipv4.igmp robustnessVariable 2
par Scenario.node[0].ipv4.igmp queryInterval 125s
attr unit s
par Scenario.node[0].ipv4.igmp queryResponseInterval 10s
attr unit s
par Scenario.node[0].ipv4.igmp groupMembershipInterval 260s
attr unit s
par Scenario.node[0].ipv4.igmp otherQuerierPresentInterval 255s
attr unit s
par Scenario.node[0].ipv4.igmp startupQueryInterval 31.25s
attr unit s
par Scenario.node[0].ipv4.igmp startupQueryCount 2
par Scenario.node[0].ipv4.igmp lastMemberQueryInterval 1s
attr unit s
par Scenario.node[0].ipv4.igmp lastMemberQueryCount 2
par Scenario.node[0].ipv4.igmp unsolicitedReportInterval 10s
attr unit s
par Scenario.node[0].ipv4.icmp typename "\"inet.networklayer.ipv4.Icmp\""
par Scenario.node[0].ipv4.icmp interfaceTableModule "\"Scenario.node[0].interfaceTable\""
par Scenario.node[0].ipv4.icmp routingTableModule "\"Scenario.node[0].ipv4.routingTable\""
par Scenario.node[0].ipv4.icmp crcMode "\"declared\""
attr enum declared,computed
par Scenario.node[0].ipv4.icmp quoteLength 8B
attr unit B
par Scenario.node[0].ipv4.mp typename "\"inet.common.MessageDispatcher\""
par Scenario.node[0].ipv4.mp displayStringTextFormat "\"processed %p pk (%l)\""
par Scenario.node[0].ipv4.ip typename "\"inet.networklayer.ipv4.Ipv4\""
par Scenario.node[0].ipv4.ip interfaceTableModule "\"Scenario.node[0].interfaceTable\""
par Scenario.node[0].ipv4.ip routingTableModule "\"Scenario.node[0].ipv4.routingTable\""
par Scenario.node[0].ipv4.ip arpModule "\"Scenario.node[0].ipv4.arp\""
par Scenario.node[0].ipv4.ip icmpModule "\"Scenario.node[0].ipv4.icmp\""
par Scenario.node[0].ipv4.ip crcMode "\"declared\""
attr enum declared,computed
par Scenario.node[0].ipv4.ip timeToLive 32
par Scenario.node[0].ipv4.ip multicastTimeToLive 32
par Scenario.node[0].ipv4.ip fragmentTimeout 60s
attr unit s
par Scenario.node[0].ipv4.ip limitedBroadcast false
par Scenario.node[0].ipv4.ip directBroadcastInterfaces "\"\""
scalar Scenario.node[0].ipv4.ip packetDropAddressResolutionFailed:count 0
attr interpolationmode none
attr source packetDropReasonIsAddressResolutionFailed(packetDropped)
attr title "packet drop: address resolution failed, count"
scalar Scenario.node[0].ipv4.ip packetDropAddressResolutionFailed:sum(packetBytes) 0
attr interpolationmode none
attr source packetDropReasonIsAddressResolutionFailed(packetDropped)
attr title "packet drop: address resolution failed, sum(packetBytes)"
scalar Scenario.node[0].ipv4.ip packetDropHopLimitReached:count 0
attr interpolationmode none
attr source packetDropReasonIsHopLimitReached(packetDropped)
attr title "packet drop: hop limit reached, count"
scalar Scenario.node[0].ipv4.ip packetDropHopLimitReached:sum(packetBytes) 0
attr interpolationmode none
attr source packetDropReasonIsHopLimitReached(packetDropped)
attr title "packet drop: hop limit reached, sum(packetBytes)"
scalar Scenario.node[0].ipv4.ip packetDropForwardingDisabled:count 0
attr interpolationmode none
attr source packetDropReasonIsForwardingDisabled(packetDropped)
attr title "packet drop: forwarding disabled, count"
scalar Scenario.node[0].ipv4.ip packetDropForwardingDisabled:sum(packetBytes) 0
attr interpolationmode none
attr source packetDropReasonIsForwardingDisabled(packetDropped)
attr title "packet drop: forwarding disabled, sum(packetBytes)"
scalar Scenario.node[0].ipv4.ip packetDropNoInterfaceFound:count 0
attr interpolationmode none
attr source packetDropReasonIsNoInterfaceFound(packetDropped)
attr title "packet drop: no interface found, count"
scalar Scenario.node[0].ipv4.ip packetDropNoInterfaceFound:sum(packetBytes) 0
attr interpolationmode none
attr source packetDropReasonIsNoInterfaceFound(packetDropped)
attr title "packet drop: no interface found, sum(packetBytes)"
scalar Scenario.node[0].ipv4.ip packetDropNoRouteFound:count 0
attr interpolationmode none
attr source packetDropReasonIsNoRouteFound(packetDropped)
attr title "packet drop: no route found, count"
scalar Scenario.node[0].ipv4.ip packetDropNoRouteFound:sum(packetBytes) 0
attr interpolationmode none
attr source packetDropReasonIsNoRouteFound(packetDropped)
attr title "packet drop: no route found, sum(packetBytes)"
scalar Scenario.node[0].ipv4.ip packetDropUndefined:count 0
attr interpolationmode none
attr source packetDropReasonIsUndefined(packetDropped)
attr title "packet drop: undefined, count"
scalar Scenario.node[0].ipv4.ip packetDropUndefined:sum(packetBytes) 0
attr interpolationmode none
attr source packetDropReasonIsUndefined(packetDropped)
attr title "packet drop: undefined, sum(packetBytes)"
par Scenario.node[0].ipv4.arp typename "\"inet.networklayer.arp.ipv4.Arp\""
par Scenario.node[0].ipv4.arp interfaceTableModule "\"Scenario.node[0].interfaceTable\""
par Scenario.node[0].ipv4.arp routingTableModule "\"Scenario.node[0].ipv4.routingTable\""
par Scenario.node[0].ipv4.arp retryTimeout 1s
attr unit s
par Scenario.node[0].ipv4.arp retryCount 3
par Scenario.node[0].ipv4.arp cacheTimeout 120s
attr unit s
par Scenario.node[0].ipv4.arp proxyArpInterfaces "\"\""
scalar Scenario.node[0].ipv4.arp arpResolutionFailed:count 0
attr title "ARP failed resolutions, count"
scalar Scenario.node[0].ipv4.arp arpResolutionCompleted:count 0
attr title "ARP completed resolutions, count"
scalar Scenario.node[0].ipv4.arp arpResolutionInitiated:count 0
attr title "ARP initiated resolutions, count"
scalar Scenario.node[0].ipv4.arp arpReplySent:count 0
attr source arpReplySent
attr title "ARP replies sent, count"
scalar Scenario.node[0].ipv4.arp arpReplySent:sum(packetBytes) 0
attr source arpReplySent
attr title "ARP replies sent, sum(packetBytes)"
scalar Scenario.node[0].ipv4.arp arpRequestSent:count 0
attr source arpRequestSent
attr title "ARP request sent, count"
scalar Scenario.node[0].ipv4.arp arpRequestSent:sum(packetBytes) 0
attr source arpRequestSent
attr title "ARP request sent, sum(packetBytes)"
par Scenario.node[0].ipv4.lp typename "\"inet.common.MessageDispatcher\""
par Scenario.node[0].ipv4.lp displayStringTextFormat "\"processed %p pk (%l)\""
par Scenario.node[0].ipv4 typename "\"inet.networklayer.ipv4.Ipv4NetworkLayer\""
par Scenario.node[0].ipv4 forwarding true
par Scenario.node[0].ipv4 multicastForwarding false
par Scenario.node[0].ipv4 interfaceTableModule "\"Scenario.node[0].interfaceTable\""
par Scenario.node[0].ipv4 displayStringTextFormat "\"%i\""
par Scenario.node[0].nl typename "\"inet.common.MessageDispatcher\""
par Scenario.node[0].nl displayStringTextFormat "\"processed %p pk (%l)\""
par Scenario.node[0].udp typename "\"inet.transportlayer.udp.Udp\""
par Scenario.node[0].udp interfaceTableModule "\"Scenario.node[0].interfaceTable\""
par Scenario.node[0].udp icmpModule "\"^.ipv4.icmp\""
par Scenario.node[0].udp icmpv6Module "\"^.ipv6.icmpv6\""
par Scenario.node[0].udp crcMode "\"declared\""
attr enum disabled,declared,computed
scalar Scenario.node[0].udp packetReceived:count 11
attr interpolationmode none
attr source packetReceived
attr title "packets received, count"
scalar Scenario.node[0].udp packetReceived:sum(packetBytes) 5588
attr interpolationmode none
attr source packetReceived
attr title "packets received, sum(packetBytes)"
scalar Scenario.node[0].udp packetSent:count 3
attr interpolationmode none
attr source packetSent
attr title "packets sent, count"
scalar Scenario.node[0].udp packetSent:sum(packetBytes) 1524
attr interpolationmode none
attr source packetSent
attr title "packets sent, sum(packetBytes)"
scalar Scenario.node[0].udp passedUpPk:count 11
attr interpolationmode none
attr source packetSentToUpper
attr title "packets passed up, count"
scalar Scenario.node[0].udp droppedPkWrongPort:count 0
attr interpolationmode none
attr source packetDropReasonIsNoPortFound(packetDropped)
attr title "packets dropped (wrong port), count"
scalar Scenario.node[0].udp droppedPkBadChecksum:count 0
attr interpolationmode none
attr source packetDropReasonIsIncorrectlyReceived(packetDropped)
attr title "packets dropped (checksum error), count"
par Scenario.node[0].tcp typename "\"inet.transportlayer.tcp.Tcp\""
par Scenario.node[0].tcp crcMode "\"declared\""
attr enum declared,computed
par Scenario.node[0].tcp advertisedWindow 7504
par Scenario.node[0].tcp delayedAcksEnabled false
par Scenario.node[0].tcp nagleEnabled true
par Scenario.node[0].tcp limitedTransmitEnabled false
par Scenario.node[0].tcp increasedIWEnabled false
par Scenario.node[0].tcp sackSupport false
par Scenario.node[0].tcp windowScalingSupport false
par Scenario.node[0].tcp windowScalingFactor -1
par Scenario.node[0].tcp timestampSupport false
par Scenario.node[0].tcp mss 536
par Scenario.node[0].tcp msl 120s
attr unit s
par Scenario.node[0].tcp tcpAlgorithmClass "\"TcpReno\""
attr enum TcpVegas,TcpWestwood,TcpNewReno,TcpReno,TcpTahoe,TcpNoCongestionControl
par Scenario.node[0].tcp useDataNotification false
par Scenario.node[0].tcp dupthresh 3
par Scenario.node[0].tcp initialSsthresh 4294967295
par Scenario.node[0].tcp stopOperationExtraTime 0s
attr unit s
par Scenario.node[0].tcp stopOperationTimeout 2s
attr unit s
par Scenario.node[0].tcp ecnWillingness false
par Scenario.node[0].tcp dctcpGamma 0.0625
par Scenario.node[0].tn typename "\"inet.common.MessageDispatcher\""
par Scenario.node[0].tn displayStringTextFormat "\"processed %p pk (%l)\""
par Scenario.node[0].app[0] typename "\"wireless.VeinsApplication\""
par Scenario.node[0].app[0] interfaceTableModule "\"Scenario.node[0].interfaceTable\""
par Scenario.node[0].app[0] interface "\"wlan0\""
scalar Scenario.node[0].app[0] packetReceived:count 11
attr interpolationmode none
attr source packetReceived
attr title "packets received, count"
scalar Scenario.node[0].app[0] packetReceived:sum(packetBytes) 5500
attr interpolationmode none
attr source packetReceived
attr title "packets received, sum(packetBytes)"
statistic Scenario.node[0].app[0] rcvdPkLifetime:stats
field count 0
field mean -nan
field stddev -nan
field min -nan
field max -nan
field sum 0
field sqrsum 0
attr interpolationmode none
attr source dataAge(packetReceived)
attr title "received packet lifetime, stats"
attr unit s
scalar Scenario.node[0].app[0] packetSent:count 3
attr interpolationmode none
attr source packetSent
attr title "packets sent, count"
scalar Scenario.node[0].app[0] packetSent:sum(packetBytes) 1500
attr interpolationmode none
attr source packetSent
attr title "packets sent, sum(packetBytes)"
par Scenario.node[0].at typename "\"inet.common.MessageDispatcher\""
par Scenario.node[0].at displayStringTextFormat "\"processed %p pk (%l)\""
par Scenario.node[0] typename "\"wireless.veins_inet.VeinsInetCar\""
par Scenario.node[0] hasStatus false
par Scenario.node[0] osgModel "\"\""
par Scenario.node[0] osgModelColor "\"\""
par Scenario.node[0] canvasImage "\"\""
par Scenario.node[0] canvasImageColor "\"\""
par Scenario.node[0] recordPcap false
par Scenario.node[0] numPcapRecorders 0
par Scenario.node[0] numLoInterfaces 1
par Scenario.node[0] numWlanInterfaces 1
par Scenario.node[0] numEthInterfaces 0
par Scenario.node[0] numPppInterfaces 0
par Scenario.node[0] numTunInterfaces 0
par Scenario.node[0] numVirtInterfaces 0
par Scenario.node[0] hasIpv4 true
par Scenario.node[0] hasIpv6 false
par Scenario.node[0] hasGn false
par Scenario.node[0] forwarding true
par Scenario.node[0] multicastForwarding false
par Scenario.node[0] hasUdp true
par Scenario.node[0] hasTcp true
par Scenario.node[0] hasSctp false
par Scenario.node[0] numApps 1
par Scenario.node[1].radioIn[0].channel typename "\"ned.IdealChannel\""
par Scenario.node[1].mobility typename "\"wireless.veins_inet.VeinsInetMobility\""
par Scenario.node[1].mobility subjectModule "\"^\""
par Scenario.node[1].mobility coordinateSystemModule "\"\""
par Scenario.node[1].mobility displayStringTextFormat "\"p: %p\\nv: %v\""
par Scenario.node[1].mobility updateDisplayString true
par Scenario.node[1].mobility constraintAreaMinX "-inf m"
attr unit m
par Scenario.node[1].mobility constraintAreaMinY "-inf m"
attr unit m
par Scenario.node[1].mobility constraintAreaMinZ "-inf m"
attr unit m
par Scenario.node[1].mobility constraintAreaMaxX "inf m"
attr unit m
par Scenario.node[1].mobility constraintAreaMaxY "inf m"
attr unit m
par Scenario.node[1].mobility constraintAreaMaxZ "inf m"
attr unit m
par Scenario.node[1].mobility initFromDisplayString true
par Scenario.node[1].interfaceTable typename "\"inet.networklayer.common.InterfaceTable\""
par Scenario.node[1].interfaceTable displayAddresses false
par Scenario.node[1].li typename "\"inet.common.MessageDispatcher\""
par Scenario.node[1].li displayStringTextFormat "\"processed %p pk (%l)\""
par Scenario.node[1].lo[0].upperLayerIn.channel typename "\"ned.IdealChannel\""
par Scenario.node[1].lo[0].lo.upperLayerOut.channel typename "\"ned.IdealChannel\""
par Scenario.node[1].lo[0].lo typename "\"inet.linklayer.loopback.Loopback\""
par Scenario.node[1].lo[0].lo interfaceTableModule "\"Scenario.node[1].interfaceTable\""
par Scenario.node[1].lo[0].lo mtu 4470B
attr unit B
scalar Scenario.node[1].lo[0].lo rcvdPkFromHl:count 2
attr interpolationmode none
attr source packetReceivedFromUpper
attr title "packets received from higher layer, count"
scalar Scenario.node[1].lo[0].lo rcvdPkFromHl:sum(packetBytes) 1056
attr interpolationmode none
attr source packetReceivedFromUpper
attr title "packets received from higher layer, sum(packetBytes)"
scalar Scenario.node[1].lo[0].lo passedUpPk:count 2
attr interpolationmode none
attr source packetSentToUpper
attr title "packets passed to higher layer, count"
scalar Scenario.node[1].lo[0].lo passedUpPk:sum(packetBytes) 1056
attr interpolationmode none
attr source packetSentToUpper
attr title "packets passed to higher layer, sum(packetBytes)"
par Scenario.node[1].lo[0] typename "\"inet.linklayer.loopback.LoopbackInterface\""
par Scenario.node[1].lo[0] displayStringTextFormat "\"%a (%i)\\n%m\""
par Scenario.node[1].lo[0] recordPcap false
par Scenario.node[1].lo[0] numPcapRecorders 0
par Scenario.node[1].lo[0] interfaceTableModule "\"Scenario.node[1].interfaceTable\""
par Scenario.node[1].wlan[0].radioIn.channel typename "\"ned.IdealChannel\""
par Scenario.node[1].wlan[0].llc.upperLayerOut.channel typename "\"ned.IdealChannel\""
par Scenario.node[1].wlan[0].upperLayerIn.channel typename "\"ned.IdealChannel\""
par Scenario.node[1].wlan[0].mib typename "\"inet.linklayer.ieee80211.mib.Ieee80211Mib\""
par Scenario.node[1].wlan[0].llc typename "\"inet.linklayer.ieee80211.llc.Ieee80211LlcEpd\""
par Scenario.node[1].wlan[0].mgmt typename "\"inet.linklayer.ieee80211.mgmt.Ieee80211MgmtAdhoc\""
par Scenario.node[1].wlan[0].mgmt mibModule "\"Scenario.node[1].wlan[0].mib\""
par Scenario.node[1].wlan[0].mgmt macModule "\"Scenario.node[1].wlan[0].mac\""
par Scenario.node[1].wlan[0].mgmt interfaceTableModule "\"Scenario.node[1].interfaceTable\""
par Scenario.node[1].wlan[0].mac.dcf.channelAccess.pendingQueue typename "\"inet.linklayer.ieee80211.mac.queue.PendingQueue\""
par Scenario.node[1].wlan[0].mac.dcf.channelAccess.pendingQueue displayStringTextFormat "\"contains %p pk (%l) pushed %u\\npulled %o removed %r dropped %d\""
par Scenario.node[1].wlan[0].mac.dcf.channelAccess.pendingQueue packetCapacity 100
par Scenario.node[1].wlan[0].mac.dcf.channelAccess.pendingQueue dataCapacity -1b
attr unit b
par Scenario.node[1].wlan[0].mac.dcf.channelAccess.pendingQueue dropperClass "\"inet::queueing::PacketAtCollectionEndDropper\""
par Scenario.node[1].wlan[0].mac.dcf.channelAccess.pendingQueue comparatorClass "\"inet::ieee80211::MgmtOverDataComparator\""
par Scenario.node[1].wlan[0].mac.dcf.channelAccess.pendingQueue bufferModule "\"\""
scalar Scenario.node[1].wlan[0].mac.dcf.channelAccess.pendingQueue packetPulled:count 2
attr interpolationmode none
attr title "packet pulled, count"
scalar Scenario.node[1].wlan[0].mac.dcf.channelAccess.pendingQueue packetPulled:sum(packetBytes) 1116
attr interpolationmode none
attr title "packet pulled, sum(packetBytes)"
statistic Scenario.node[1].wlan[0].mac.dcf.channelAccess.pendingQueue queueingTime:histogram
field count 2
field mean 0
field stddev 0
field min 0
field max 0
field sum 0
field sqrsum 0
attr interpolationmode none
attr source queueingTime(packetPulled)
attr title "queueing times, histogram"
attr unit s
bin	-inf	0
bin	-0.5	0
bin	-0.48	0
bin	-0.46	0
bin	-0.44	0
bin	-0.42	0
bin	-0.4	0
bin	-0.38	0
bin	-0.36	0
bin	-0.34	0
bin	-0.32	0
bin	-0.3	0
bin	-0.28	0
bin	-0.26	0
bin	-0.24	0
bin	-0.22	0
bin	-0.2	0
bin	-0.18	0
bin	-0.16	0
bin	-0.14	0
bin	-0.12	0
bin	-0.1	0
bin	-0.08	0
bin	-0.06	0
bin	-0.04	0
bin	-0.02	0
bin	0	2
bin	0.02	0
bin	0.04	0
bin	0.06	0
bin	0.08	0
bin	0.1	0
bin	0.12	0
bin	0.14	0
bin	0.16	0
bin	0.18	0
bin	0.2	0
bin	0.22	0
bin	0.24	0
bin	0.26	0
bin	0.28	0
bin	0.3	0
bin	0.32	0
bin	0.34	0
bin	0.36	0
bin	0.38	0
bin	0.4	0
bin	0.42	0
bin	0.44	0
bin	0.46	0
bin	0.48	0
bin	0.5	0
scalar Scenario.node[1].wlan[0].mac.dcf.channelAccess.pendingQueue queueLength:max 1
attr autoWarmupFilter false
attr interpolationmode sample-hold
attr source "warmup(count(packetPushed) - count(packetPulled) - count(packetRemoved) - count(packetDropped))"
attr title "queue length, max"
attr type int
scalar Scenario.node[1].wlan[0].mac.dcf.channelAccess.pendingQueue queueLength:timeavg 0
attr autoWarmupFilter false
attr interpolationmode sample-hold
attr source "warmup(count(packetPushed) - count(packetPulled) - count(packetRemoved) - count(packetDropped))"
attr title "queue length, timeavg"
attr type int
scalar Scenario.node[1].wlan[0].mac.dcf.channelAccess.pendingQueue packetPushed:count 2
attr interpolationmode none
attr title "packet pushed, count"
scalar Scenario.node[1].wlan[0].mac.dcf.channelAccess.pendingQueue packetPushed:sum(packetBytes) 1116
attr interpolationmode none
attr title "packet pushed, sum(packetBytes)"
scalar Scenario.node[1].wlan[0].mac.dcf.channelAccess.pendingQueue packetDropQueueOverflow:count 0
attr interpolationmode none
attr source packetDropReasonIsQueueOverflow(packetDropped)
attr title "packet drops: queue overflow, count"
scalar Scenario.node[1].wlan[0].mac.dcf.channelAccess.pendingQueue packetDropQueueOverflow:sum(packetBytes) 0
attr interpolationmode none
attr source packetDropReasonIsQueueOverflow(packetDropped)
attr title "packet drops: queue overflow, sum(packetBytes)"
scalar Scenario.node[1].wlan[0].mac.dcf.channelAccess.pendingQueue packetRemoved:count 0
attr interpolationmode none
attr title "packets removed, count"
scalar Scenario.node[1].wlan[0].mac.dcf.channelAccess.pendingQueue packetRemoved:sum(packetBytes) 0
attr interpolationmode none
attr title "packets removed, sum(packetBytes)"
par Scenario.node[1].wlan[0].mac.dcf.channelAccess.inProgressFrames typename "\"inet.linklayer.ieee80211.mac.queue.InProgressFrames\""
par Scenario.node[1].wlan[0].mac.dcf.channelAccess.inProgressFrames pendingQueueModule "\"^.pendingQueue\""
par Scenario.node[1].wlan[0].mac.dcf.channelAccess.inProgressFrames originatorMacDataServiceModule "\"^.^.originatorMacDataService\""
par Scenario.node[1].wlan[0].mac.dcf.channelAccess.inProgressFrames ackHandlerModule "\"^.^.ackHandler\""
statistic Scenario.node[1].wlan[0].mac.dcf.channelAccess.inProgressFrames queueingTime:histogram
field count 2
field mean 0.000416
field stddev 0
field min 0.000416
field max 0.000416
field sum 0.000832
field sqrsum 3.46112e-07
attr interpolationmode none
attr source queueingTime(packetDequeued)
attr title "queueing times, histogram"
bin	-inf	0
bin	0	2
bin	0.01	0
bin	0.02	0
bin	0.03	0
bin	0.04	0
bin	0.05	0
bin	0.06	0
bin	0.07	0
bin	0.08	0
bin	0.09	0
bin	0.1	0
bin	0.11	0
bin	0.12	0
bin	0.13	0
bin	0.14	0
bin	0.15	0
bin	0.16	0
bin	0.17	0
bin	0.18	0
bin	0.19	0
bin	0.2	0
bin	0.21	0
bin	0.22	0
bin	0.23	0
bin	0.24	0
bin	0.25	0
bin	0.26	0
bin	0.27	0
bin	0.28	0
bin	0.29	0
bin	0.3	0
bin	0.31	0
bin	0.32	0
bin	0.33	0
bin	0.34	0
bin	0.35	0
bin	0.36	0
bin	0.37	0
bin	0.38	0
bin	0.39	0
bin	0.4	0
bin	0.41	0
bin	0.42	0
bin	0.43	0
bin	0.44	0
bin	0.45	0
bin	0.46	0
bin	0.47	0
bin	0.48	0
bin	0.49	0
bin	0.5	0
bin	0.51	0
scalar Scenario.node[1].wlan[0].mac.dcf.channelAccess.inProgressFrames queueLength:max 1
attr autoWarmupFilter false
attr interpolationmode sample-hold
attr source "warmup(count(packetEnqueued) - count(packetDequeued))"
attr title "queue length, max"
scalar Scenario.node[1].wlan[0].mac.dcf.channelAccess.inProgressFrames queueLength:timeavg 0.00018389519950372
attr autoWarmupFilter false
attr interpolationmode sample-hold
attr source "warmup(count(packetEnqueued) - count(packetDequeued))"
attr title "queue length, timeavg"
par Scenario.node[1].wlan[0].mac.dcf.channelAccess.contention typename "\"inet.linklayer.ieee80211.mac.contention.Contention\""
par Scenario.node[1].wlan[0].mac.dcf.channelAccess.contention initialChannelBusy true
par Scenario.node[1].wlan[0].mac.dcf.channelAccess.contention backoffOptimization true
scalar Scenario.node[1].wlan[0].mac.dcf.channelAccess.contention channelAccessGranted:count 2
attr title "channel access granted, count"
scalar Scenario.node[1].wlan[0].mac.dcf.channelAccess.contention stateChanged:count 52
attr enum IDLE,DEFER,IFS_AND_BACKOFF
attr interpolationmode none
attr title "contention state changed, count"
attr type enum
par Scenario.node[1].wlan[0].mac.dcf.channelAccess typename "\"inet.linklayer.ieee80211.mac.channelaccess.Dcaf\""
par Scenario.node[1].wlan[0].mac.dcf.channelAccess difsn -1
par Scenario.node[1].wlan[0].mac.dcf.channelAccess cwMin -1
par Scenario.node[1].wlan[0].mac.dcf.channelAccess cwMax -1
par Scenario.node[1].wlan[0].mac.dcf.channelAccess rxModule "\"^.^.rx\""
scalar Scenario.node[1].wlan[0].mac.dcf.channelAccess channelOwnershipChanged:count 4
attr interpolationmode sample-hold
attr title "channel ownership, count"
par Scenario.node[1].wlan[0].mac.dcf.originatorMacDataService.fragmentationPolicy typename "\"inet.linklayer.ieee80211.mac.fragmentation.BasicFragmentationPolicy\""
par Scenario.node[1].wlan[0].mac.dcf.originatorMacDataService.fragmentationPolicy fragmentationThreshold 1500B
attr unit B
par Scenario.node[1].wlan[0].mac.dcf.originatorMacDataService typename "\"inet.linklayer.ieee80211.mac.originator.OriginatorMacDataService\""
scalar Scenario.node[1].wlan[0].mac.dcf.originatorMacDataService packetAggregated:count 0
attr title "packets aggregated, count"
scalar Scenario.node[1].wlan[0].mac.dcf.originatorMacDataService packetFragmented:count 0
attr title "packets fragmented, count"
par Scenario.node[1].wlan[0].mac.dcf.recipientMacDataService typename "\"inet.linklayer.ieee80211.mac.recipient.RecipientMacDataService\""
scalar Scenario.node[1].wlan[0].mac.dcf.recipientMacDataService packetDeaggregated:count 0
attr title "packets deaggregated, count"
scalar Scenario.node[1].wlan[0].mac.dcf.recipientMacDataService packetDefragmented:count 8
attr title "packets defragmented, count"
scalar Scenario.node[1].wlan[0].mac.dcf.recipientMacDataService packetDropDuplicateDetected:count 0
attr interpolationmode none
attr source packetDropReasonIsDuplicateDetected(packetDropped)
attr title "packet drops: duplicate detected, count"
scalar Scenario.node[1].wlan[0].mac.dcf.recipientMacDataService packetDropDuplicateDetected:sum(packetBytes) 0
attr interpolationmode none
attr source packetDropReasonIsDuplicateDetected(packetDropped)
attr title "packet drops: duplicate detected, sum(packetBytes)"
par Scenario.node[1].wlan[0].mac.dcf.rateSelection typename "\"inet.linklayer.ieee80211.mac.rateselection.RateSelection\""
par Scenario.node[1].wlan[0].mac.dcf.rateSelection rateControlModule "\"^.rateControl\""
par Scenario.node[1].wlan[0].mac.dcf.rateSelection multicastFrameBitrate -1bps
attr unit bps
par Scenario.node[1].wlan[0].mac.dcf.rateSelection responseAckFrameBitrate -1bps
attr unit bps
par Scenario.node[1].wlan[0].mac.dcf.rateSelection responseCtsFrameBitrate -1bps
attr unit bps
par Scenario.node[1].wlan[0].mac.dcf.rateSelection dataFrameBitrate -1bps
attr unit bps
par Scenario.node[1].wlan[0].mac.dcf.rateSelection dataFrameBandwidth "nan Hz"
attr unit Hz
par Scenario.node[1].wlan[0].mac.dcf.rateSelection dataFrameNumSpatialStreams -1
par Scenario.node[1].wlan[0].mac.dcf.rateSelection mgmtFrameBitrate -1bps
attr unit bps
par Scenario.node[1].wlan[0].mac.dcf.rateSelection controlFrameBitrate -1bps
attr unit bps
par Scenario.node[1].wlan[0].mac.dcf.recoveryProcedure typename "\"inet.linklayer.ieee80211.mac.originator.NonQosRecoveryProcedure\""
par Scenario.node[1].wlan[0].mac.dcf.recoveryProcedure cwCalculatorModule "\"^.channelAccess\""
par Scenario.node[1].wlan[0].mac.dcf.recoveryProcedure rtsPolicyModule "\"^.rtsPolicy\""
par Scenario.node[1].wlan[0].mac.dcf.recoveryProcedure shortRetryLimit 7
par Scenario.node[1].wlan[0].mac.dcf.recoveryProcedure longRetryLimit 4
scalar Scenario.node[1].wlan[0].mac.dcf.recoveryProcedure retryLimitReached:count 0
attr title "retry limit reached, count"
par Scenario.node[1].wlan[0].mac.dcf.originatorProtectionMechanism typename "\"inet.linklayer.ieee80211.mac.protectionmechanism.OriginatorProtectionMechanism\""
par Scenario.node[1].wlan[0].mac.dcf.originatorProtectionMechanism rateSelectionModule "\"^.rateSelection\""
par Scenario.node[1].wlan[0].mac.dcf.ackHandler typename "\"inet.linklayer.ieee80211.mac.originator.AckHandler\""
par Scenario.node[1].wlan[0].mac.dcf.originatorAckPolicy typename "\"inet.linklayer.ieee80211.mac.originator.OriginatorAckPolicy\""
par Scenario.node[1].wlan[0].mac.dcf.originatorAckPolicy rateSelectionModule "\"^.rateSelection\""
par Scenario.node[1].wlan[0].mac.dcf.originatorAckPolicy ackTimeout -1s
attr unit s
par Scenario.node[1].wlan[0].mac.dcf.recipientAckPolicy typename "\"inet.linklayer.ieee80211.mac.recipient.RecipientAckPolicy\""
par Scenario.node[1].wlan[0].mac.dcf.recipientAckPolicy rateSelectionModule "\"^.rateSelection\""
par Scenario.node[1].wlan[0].mac.dcf.rtsPolicy typename "\"inet.linklayer.ieee80211.mac.originator.RtsPolicy\""
par Scenario.node[1].wlan[0].mac.dcf.rtsPolicy rateSelectionModule "\"^.rateSelection\""
par Scenario.node[1].wlan[0].mac.dcf.rtsPolicy ctsTimeout -1s
attr unit s
par Scenario.node[1].wlan[0].mac.dcf.rtsPolicy rtsThreshold 2346B
attr unit B
par Scenario.node[1].wlan[0].mac.dcf.ctsPolicy typename "\"inet.linklayer.ieee80211.mac.recipient.CtsPolicy\""
par Scenario.node[1].wlan[0].mac.dcf.ctsPolicy rxModule "\"^.^.rx\""
par Scenario.node[1].wlan[0].mac.dcf.ctsPolicy rateSelectionModule "\"^.rateSelection\""
par Scenario.node[1].wlan[0].mac.dcf typename "\"inet.linklayer.ieee80211.mac.coordinationfunction.Dcf\""
par Scenario.node[1].wlan[0].mac.dcf rxModule "\"^.rx\""
par Scenario.node[1].wlan[0].mac.dcf txModule "\"^.tx\""
scalar Scenario.node[1].wlan[0].mac.dcf frameSequenceFinished:count 2
attr title "finished frame sequences, count"
statistic Scenario.node[1].wlan[0].mac.dcf frameSequenceDuration:histogram
field count 2
field mean 0.000416
field stddev 0
field min 0.000416
field max 0.000416
field sum 0.000832
field sqrsum 3.46112e-07
attr source frameSequenceDuration(frameSequenceFinished)
attr title "frame sequence durations, histogram"
bin	-inf	0
bin	0	2
bin	0.01	0
bin	0.02	0
bin	0.03	0
bin	0.04	0
bin	0.05	0
bin	0.06	0
bin	0.07	0
bin	0.08	0
bin	0.09	0
bin	0.1	0
bin	0.11	0
bin	0.12	0
bin	0.13	0
bin	0.14	0
bin	0.15	0
bin	0.16	0
bin	0.17	0
bin	0.18	0
bin	0.19	0
bin	0.2	0
bin	0.21	0
bin	0.22	0
bin	0.23	0
bin	0.24	0
bin	0.25	0
bin	0.26	0
bin	0.27	0
bin	0.28	0
bin	0.29	0
bin	0.3	0
bin	0.31	0
bin	0.32	0
bin	0.33	0
bin	0.34	0
bin	0.35	0
bin	0.36	0
bin	0.37	0
bin	0.38	0
bin	0.39	0
bin	0.4	0
bin	0.41	0
bin	0.42	0
bin	0.43	0
bin	0.44	0
bin	0.45	0
bin	0.46	0
bin	0.47	0
bin	0.48	0
bin	0.49	0
bin	0.5	0
bin	0.51	0
statistic Scenario.node[1].wlan[0].mac.dcf frameSequenceNumPackets:histogram
field count 2
field mean 1
field stddev 0
field min 1
field max 1
field sum 2
field sqrsum 2
attr source frameSequenceNumPackets(frameSequenceFinished)
attr title "frame sequences: number of packets, histogram"
bin	-inf	0
bin	0	0
bin	1	2
bin	2	0
scalar Scenario.node[1].wlan[0].mac.dcf packetReceivedFromPeer:count 8
attr interpolationmode none
attr title "packets received, count"
scalar Scenario.node[1].wlan[0].mac.dcf packetReceivedFromPeer:sum(packetBytes) 4464
attr interpolationmode none
attr title "packets received, sum(packetBytes)"
scalar Scenario.node[1].wlan[0].mac.dcf packetReceivedFromPeerUnicast:count 0
attr interpolationmode none
attr source ieee80211Unicast(packetReceivedFromPeer)
attr title "packets received: unicast, count"
scalar Scenario.node[1].wlan[0].mac.dcf packetReceivedFromPeerUnicast:sum(packetBytes) 0
attr interpolationmode none
attr source ieee80211Unicast(packetReceivedFromPeer)
attr title "packets received: unicast, sum(packetBytes)"
scalar Scenario.node[1].wlan[0].mac.dcf packetReceivedFromPeerMulticast:count 8
attr interpolationmode none
attr source ieee80211Multicast(packetReceivedFromPeer)
attr title "packets received: multicast, count"
scalar Scenario.node[1].wlan[0].mac.dcf packetReceivedFromPeerMulticast:sum(packetBytes) 4464
attr interpolationmode none
attr source ieee80211Multicast(packetReceivedFromPeer)
attr title "packets received: multicast, sum(packetBytes)"
scalar Scenario.node[1].wlan[0].mac.dcf packetReceivedFromPeerBroadcast:count 0
attr interpolationmode none
attr source ieee80211Broadcast(packetReceivedFromPeer)
attr title "packets received: broadcast, count"
scalar Scenario.node[1].wlan[0].mac.dcf packetReceivedFromPeerBroadcast:sum(packetBytes) 0
attr interpolationmode none
attr source ieee80211Broadcast(packetReceivedFromPeer)
attr title "packets received: broadcast, sum(packetBytes)"
scalar Scenario.node[1].wlan[0].mac.dcf packetReceivedFromPeerWithRetry:count 0
attr interpolationmode none
attr source ieee80211Retry(packetReceivedFromPeer)
attr title "packets received: with retry, count"
scalar Scenario.node[1].wlan[0].mac.dcf packetReceivedFromPeerWithRetry:sum(packetBytes) 0
attr interpolationmode none
attr source ieee80211Retry(packetReceivedFromPeer)
attr title "packets received: with retry, sum(packetBytes)"
scalar Scenario.node[1].wlan[0].mac.dcf packetReceivedFromPeerWithoutRetry:count 8
attr interpolationmode none
attr source ieee80211NotRetry(packetReceivedFromPeer)
attr title "packets received: without retry, count"
scalar Scenario.node[1].wlan[0].mac.dcf packetReceivedFromPeerWithoutRetry:sum(packetBytes) 4464
attr interpolationmode none
attr source ieee80211NotRetry(packetReceivedFromPeer)
attr title "packets received: without retry, sum(packetBytes)"
scalar Scenario.node[1].wlan[0].mac.dcf packetSentToPeer:count 2
attr interpolationmode none
attr title "packets sent, count"
scalar Scenario.node[1].wlan[0].mac.dcf packetSentToPeer:sum(packetBytes) 1116
attr interpolationmode none
attr title "packets sent, sum(packetBytes)"
scalar Scenario.node[1].wlan[0].mac.dcf packetSentToPeerUnicast:count 0
attr interpolationmode none
attr source ieee80211Unicast(packetSentToPeer)
attr title "packets sent: unicast, count"
scalar Scenario.node[1].wlan[0].mac.dcf packetSentToPeerUnicast:sum(packetBytes) 0
attr interpolationmode none
attr source ieee80211Unicast(packetSentToPeer)
attr title "packets sent: unicast, sum(packetBytes)"
scalar Scenario.node[1].wlan[0].mac.dcf packetSentToPeerMulticast:count 2
attr interpolationmode none
attr source ieee80211Multicast(packetSentToPeer)
attr title "packets sent: multicast, count"
scalar Scenario.node[1].wlan[0].mac.dcf packetSentToPeerMulticast:sum(packetBytes) 1116
attr interpolationmode none
attr source ieee80211Multicast(packetSentToPeer)
attr title "packets sent: multicast, sum(packetBytes)"
scalar Scenario.node[1].wlan[0].mac.dcf packetSentToPeerBroadcast:count 0
attr interpolationmode none
attr source ieee80211Broadcast(packetSentToPeer)
attr title "packets sent: broadcast , count"
scalar Scenario.node[1].wlan[0].mac.dcf packetSentToPeerBroadcast:sum(packetBytes) 0
attr interpolationmode none
attr source ieee80211Broadcast(packetSentToPeer)
attr title "packets sent: broadcast , sum(packetBytes)"
scalar Scenario.node[1].wlan[0].mac.dcf packetSentToPeerWithRetry:count 0
attr interpolationmode none
[...]
par Scenario.visualizer.packetFlowVisualizer fadeOutMode "\"realTime\""
attr enum realTime,animationTime,simulationTime
par Scenario.visualizer.packetFlowVisualizer fadeOutTime 0s
attr unit s
par Scenario.visualizer.packetFlowVisualizer fadeOutAnimationSpeed 0
par Scenario.visualizer.packetFlowVisualizer zIndex 4
par Scenario.visualizer.queueVisualizer typename "\"inet.visualizer.canvas.common.QueueCanvasVisualizer\""
par Scenario.visualizer.queueVisualizer visualizationTargetModule "\"^.^\""
par Scenario.visualizer.queueVisualizer visualizationSubjectModule "\"^.^\""
par Scenario.visualizer.queueVisualizer tags "\"\""
par Scenario.visualizer.queueVisualizer networkNodeVisualizerModule "\"^.networkNodeVisualizer\""
par Scenario.visualizer.queueVisualizer displayQueues false
par Scenario.visualizer.queueVisualizer queueFilter "\"**\""
par Scenario.visualizer.queueVisualizer color "\"blue\""
par Scenario.visualizer.queueVisualizer width 8
par Scenario.visualizer.queueVisualizer height 24
par Scenario.visualizer.queueVisualizer spacing 2
par Scenario.visualizer.queueVisualizer placementHint "\"right\""
par Scenario.visualizer.queueVisualizer placementPriority 0
par Scenario.visualizer.queueVisualizer zIndex 10
par Scenario.visualizer.radioVisualizer typename "\"inet.visualizer.canvas.physicallayer.RadioCanvasVisualizer\""
par Scenario.visualizer.radioVisualizer visualizationTargetModule "\"^.^\""
par Scenario.visualizer.radioVisualizer visualizationSubjectModule "\"^.^\""
par Scenario.visualizer.radioVisualizer tags "\"\""
par Scenario.visualizer.radioVisualizer networkNodeVisualizerModule "\"^.networkNodeVisualizer\""
par Scenario.visualizer.radioVisualizer displayRadios false
par Scenario.visualizer.radioVisualizer displayRadioMode true
par Scenario.visualizer.radioVisualizer displayReceptionState true
par Scenario.visualizer.radioVisualizer displayTransmissionState true
par Scenario.visualizer.radioVisualizer displayAntennaLobes false
par Scenario.visualizer.radioVisualizer radioFilter "\"**\""
par Scenario.visualizer.radioVisualizer radioModeImages "\"block/process_vs block/timer_vs block/wrx_vs block/wtx_vs block/wrxtx_vs block/cogwheel_vs\""
par Scenario.visualizer.radioVisualizer receptionStateImages "\"- - misc/receiving misc/receiving\""
par Scenario.visualizer.radioVisualizer transmissionStateImages "\"- - misc/transmitting\""
par Scenario.visualizer.radioVisualizer width 16
par Scenario.visualizer.radioVisualizer height 16
par Scenario.visualizer.radioVisualizer placementHint "\"bottomRight\""
par Scenario.visualizer.radioVisualizer placementPriority 0
par Scenario.visualizer.radioVisualizer antennaLobeNormalize false
par Scenario.visualizer.radioVisualizer antennaLobeRelativeLabels false
par Scenario.visualizer.radioVisualizer antennaLobePlaneGlobal true
par Scenario.visualizer.radioVisualizer antennaLobePlane "\"view\""
attr enum view,xy,xz,yz
par Scenario.visualizer.radioVisualizer antennaLobeMode "\"logarithmic\""
attr enum logarithmic,linear
par Scenario.visualizer.radioVisualizer antennaLobeLogarithmicBase 10
par Scenario.visualizer.radioVisualizer antennaLobeLogarithmicScale 100
par Scenario.visualizer.radioVisualizer antennaLobeRadius 100
par Scenario.visualizer.radioVisualizer antennaLobeStep 10deg
attr unit deg
par Scenario.visualizer.radioVisualizer antennaLobeOpacity 0.25
par Scenario.visualizer.radioVisualizer antennaLobeLineSmooth true
par Scenario.visualizer.radioVisualizer antennaLobeLineColor "\"black\""
par Scenario.visualizer.radioVisualizer antennaLobeLineStyle "\"solid\""
par Scenario.visualizer.radioVisualizer antennaLobeLineWidth 1
par Scenario.visualizer.radioVisualizer antennaLobeFillColor "\"white\""
par Scenario.visualizer.radioVisualizer zIndex 10
par Scenario.visualizer.physicalLinkVisualizer typename "\"inet.visualizer.canvas.physicallayer.PhysicalLinkCanvasVisualizer\""
par Scenario.visualizer.physicalLinkVisualizer visualizationTargetModule "\"^.^\""
par Scenario.visualizer.physicalLinkVisualizer visualizationSubjectModule "\"^.^\""
par Scenario.visualizer.physicalLinkVisualizer tags "\"\""
par Scenario.visualizer.physicalLinkVisualizer displayLinks false
par Scenario.visualizer.physicalLinkVisualizer activityLevel "\"service\""
attr enum service,peer,protocol
par Scenario.visualizer.physicalLinkVisualizer nodeFilter "\"*\""
par Scenario.visualizer.physicalLinkVisualizer interfaceFilter "\"*\""
par Scenario.visualizer.physicalLinkVisualizer packetFilter "\"*\""
par Scenario.visualizer.physicalLinkVisualizer packetDataFilter "\"*\""
par Scenario.visualizer.physicalLinkVisualizer lineColor "\"olive\""
par Scenario.visualizer.physicalLinkVisualizer lineStyle "\"dotted\""
par Scenario.visualizer.physicalLinkVisualizer lineWidth 3
par Scenario.visualizer.physicalLinkVisualizer lineShift 16
par Scenario.visualizer.physicalLinkVisualizer lineShiftMode "\"normal\""
par Scenario.visualizer.physicalLinkVisualizer lineContactSpacing 3
par Scenario.visualizer.physicalLinkVisualizer lineContactMode "\"rectangular\""
attr enum circular,rectangular
par Scenario.visualizer.physicalLinkVisualizer labelFormat "\"%n\""
par Scenario.visualizer.physicalLinkVisualizer labelFont "\"<default>, 8px\""
par Scenario.visualizer.physicalLinkVisualizer labelColor "\"olive\""
par Scenario.visualizer.physicalLinkVisualizer fadeOutMode "\"realTime\""
attr enum realTime,animationTime,simulationTime
par Scenario.visualizer.physicalLinkVisualizer fadeOutTime 1s
attr unit s
par Scenario.visualizer.physicalLinkVisualizer fadeOutAnimationSpeed 0
par Scenario.visualizer.physicalLinkVisualizer holdAnimationTime 0s
attr unit s
par Scenario.visualizer.physicalLinkVisualizer zIndex 1
par Scenario.visualizer.interfaceTableVisualizer typename "\"inet.visualizer.canvas.linklayer.InterfaceTableCanvasVisualizer\""
par Scenario.visualizer.interfaceTableVisualizer visualizationTargetModule "\"^.^\""
par Scenario.visualizer.interfaceTableVisualizer visualizationSubjectModule "\"^.^\""
par Scenario.visualizer.interfaceTableVisualizer tags "\"\""
par Scenario.visualizer.interfaceTableVisualizer networkNodeVisualizerModule "\"^.networkNodeVisualizer\""
par Scenario.visualizer.interfaceTableVisualizer displayInterfaceTables false
par Scenario.visualizer.interfaceTableVisualizer displayWiredInterfacesAtConnections true
par Scenario.visualizer.interfaceTableVisualizer displayBackground false
par Scenario.visualizer.interfaceTableVisualizer nodeFilter "\"*\""
par Scenario.visualizer.interfaceTableVisualizer interfaceFilter "\"not(lo*)\""
par Scenario.visualizer.interfaceTableVisualizer format "\"%N %\\\\%a/%l\""
par Scenario.visualizer.interfaceTableVisualizer placementHint "\"top\""
par Scenario.visualizer.interfaceTableVisualizer placementPriority 0
par Scenario.visualizer.interfaceTableVisualizer font "\"<default>\""
par Scenario.visualizer.interfaceTableVisualizer textColor "\"#005030\""
par Scenario.visualizer.interfaceTableVisualizer backgroundColor "\"white\""
par Scenario.visualizer.interfaceTableVisualizer opacity 1
par Scenario.visualizer.interfaceTableVisualizer zIndex 10
par Scenario.visualizer.dataLinkVisualizer typename "\"inet.visualizer.canvas.linklayer.DataLinkCanvasVisualizer\""
par Scenario.visualizer.dataLinkVisualizer visualizationTargetModule "\"^.^\""
par Scenario.visualizer.dataLinkVisualizer visualizationSubjectModule "\"^.^\""
par Scenario.visualizer.dataLinkVisualizer tags "\"\""
par Scenario.visualizer.dataLinkVisualizer displayLinks false
par Scenario.visualizer.dataLinkVisualizer activityLevel "\"service\""
attr enum service,peer,protocol
par Scenario.visualizer.dataLinkVisualizer nodeFilter "\"*\""
par Scenario.visualizer.dataLinkVisualizer interfaceFilter "\"*\""
par Scenario.visualizer.dataLinkVisualizer packetFilter "\"*\""
par Scenario.visualizer.dataLinkVisualizer packetDataFilter "\"*\""
par Scenario.visualizer.dataLinkVisualizer lineColor "\"darkcyan\""
par Scenario.visualizer.dataLinkVisualizer lineStyle "\"solid\""
par Scenario.visualizer.dataLinkVisualizer lineWidth 3
par Scenario.visualizer.dataLinkVisualizer lineShift 16
par Scenario.visualizer.dataLinkVisualizer lineShiftMode "\"normal\""
par Scenario.visualizer.dataLinkVisualizer lineContactSpacing 3
par Scenario.visualizer.dataLinkVisualizer lineContactMode "\"rectangular\""
attr enum circular,rectangular
par Scenario.visualizer.dataLinkVisualizer labelFormat "\"%n\""
par Scenario.visualizer.dataLinkVisualizer labelFont "\"<default>, 8px\""
par Scenario.visualizer.dataLinkVisualizer labelColor "\"darkcyan\""
par Scenario.visualizer.dataLinkVisualizer fadeOutMode "\"realTime\""
attr enum realTime,animationTime,simulationTime
par Scenario.visualizer.dataLinkVisualizer fadeOutTime 1s
attr unit s
par Scenario.visualizer.dataLinkVisualizer fadeOutAnimationSpeed 0
par Scenario.visualizer.dataLinkVisualizer holdAnimationTime 0s
attr unit s
par Scenario.visualizer.dataLinkVisualizer zIndex 2
par Scenario.visualizer.linkBreakVisualizer typename "\"inet.visualizer.canvas.linklayer.LinkBreakCanvasVisualizer\""
par Scenario.visualizer.linkBreakVisualizer visualizationTargetModule "\"^.^\""
par Scenario.visualizer.linkBreakVisualizer visualizationSubjectModule "\"^.^\""
par Scenario.visualizer.linkBreakVisualizer tags "\"\""
par Scenario.visualizer.linkBreakVisualizer displayLinkBreaks false
par Scenario.visualizer.linkBreakVisualizer nodeFilter "\"*\""
par Scenario.visualizer.linkBreakVisualizer interfaceFilter "\"*\""
par Scenario.visualizer.linkBreakVisualizer packetFilter "\"*\""
par Scenario.visualizer.linkBreakVisualizer packetDataFilter "\"*\""
par Scenario.visualizer.linkBreakVisualizer icon "\"status/stop\""
par Scenario.visualizer.linkBreakVisualizer iconTintAmount 0
par Scenario.visualizer.linkBreakVisualizer iconTintColor "\"\""
par Scenario.visualizer.linkBreakVisualizer fadeOutMode "\"realTime\""
attr enum realTime,animationTime,simulationTime
par Scenario.visualizer.linkBreakVisualizer fadeOutTime 1s
attr unit s
par Scenario.visualizer.linkBreakVisualizer fadeOutAnimationSpeed 0
par Scenario.visualizer.linkBreakVisualizer zIndex 2
par Scenario.visualizer.ieee80211Visualizer typename "\"inet.visualizer.canvas.linklayer.Ieee80211CanvasVisualizer\""
par Scenario.visualizer.ieee80211Visualizer visualizationTargetModule "\"^.^\""
par Scenario.visualizer.ieee80211Visualizer visualizationSubjectModule "\"^.^\""
par Scenario.visualizer.ieee80211Visualizer tags "\"\""
par Scenario.visualizer.ieee80211Visualizer networkNodeVisualizerModule "\"^.networkNodeVisualizer\""
par Scenario.visualizer.ieee80211Visualizer displayAssociations false
par Scenario.visualizer.ieee80211Visualizer nodeFilter "\"*\""
par Scenario.visualizer.ieee80211Visualizer interfaceFilter "\"*\""
par Scenario.visualizer.ieee80211Visualizer minPower -85dBm
attr unit dBm
par Scenario.visualizer.ieee80211Visualizer maxPower -50dBm
attr unit dBm
par Scenario.visualizer.ieee80211Visualizer icons "\"misc/signal_power_0 misc/signal_power_1 misc/signal_power_2 misc/signal_power_3\""
par Scenario.visualizer.ieee80211Visualizer iconColor "\"dark\""
attr enum light,dark
par Scenario.visualizer.ieee80211Visualizer labelFont "\"<default>\""
par Scenario.visualizer.ieee80211Visualizer labelColor "\"black\""
par Scenario.visualizer.ieee80211Visualizer placementHint "\"top\""
par Scenario.visualizer.ieee80211Visualizer placementPriority 0
par Scenario.visualizer.ieee80211Visualizer zIndex 2
par Scenario.visualizer.networkRouteVisualizer typename "\"inet.visualizer.canvas.networklayer.NetworkRouteCanvasVisualizer\""
par Scenario.visualizer.networkRouteVisualizer visualizationTargetModule "\"^.^\""
par Scenario.visualizer.networkRouteVisualizer visualizationSubjectModule "\"^.^\""
par Scenario.visualizer.networkRouteVisualizer tags "\"\""
par Scenario.visualizer.networkRouteVisualizer displayRoutes false
par Scenario.visualizer.networkRouteVisualizer startPathSignal "\"packetReceivedFromUpper\""
par Scenario.visualizer.networkRouteVisualizer extendPathSignal "\"packetReceivedFromLower\""
par Scenario.visualizer.networkRouteVisualizer endPathSignal "\"packetSentToUpper\""
par Scenario.visualizer.networkRouteVisualizer nodeFilter "\"*\""
par Scenario.visualizer.networkRouteVisualizer packetFilter "\"*\""
par Scenario.visualizer.networkRouteVisualizer packetDataFilter "\"*\""
par Scenario.visualizer.networkRouteVisualizer lineColor "\"dark\""
attr enum light,dark
par Scenario.visualizer.networkRouteVisualizer lineStyle "\"solid\""
par Scenario.visualizer.networkRouteVisualizer lineWidth 3
par Scenario.visualizer.networkRouteVisualizer lineSmooth false
par Scenario.visualizer.networkRouteVisualizer lineShift 16
par Scenario.visualizer.networkRouteVisualizer lineShiftMode "\"normal\""
par Scenario.visualizer.networkRouteVisualizer lineContactSpacing 3
par Scenario.visualizer.networkRouteVisualizer lineContactMode "\"rectangular\""
attr enum circular,rectangular
par Scenario.visualizer.networkRouteVisualizer labelFormat "\"%n\""
par Scenario.visualizer.networkRouteVisualizer labelFont "\"<default>, 8px\""
par Scenario.visualizer.networkRouteVisualizer labelColor "\"\""
par Scenario.visualizer.networkRouteVisualizer fadeOutMode "\"realTime\""
attr enum realTime,animationTime,simulationTime
par Scenario.visualizer.networkRouteVisualizer fadeOutTime 1s
attr unit s
par Scenario.visualizer.networkRouteVisualizer fadeOutAnimationSpeed 0
par Scenario.visualizer.networkRouteVisualizer zIndex 3
par Scenario.visualizer.routingTableVisualizer typename "\"inet.visualizer.canvas.networklayer.RoutingTableCanvasVisualizer\""
par Scenario.visualizer.routingTableVisualizer visualizationTargetModule "\"^.^\""
par Scenario.visualizer.routingTableVisualizer visualizationSubjectModule "\"^.^\""
par Scenario.visualizer.routingTableVisualizer tags "\"\""
par Scenario.visualizer.routingTableVisualizer displayRoutingTables false
par Scenario.visualizer.routingTableVisualizer displayRoutesIndividually true
par Scenario.visualizer.routingTableVisualizer displayLabels true
par Scenario.visualizer.routingTableVisualizer destinationFilter "\"*\""
par Scenario.visualizer.routingTableVisualizer nodeFilter "\"*\""
par Scenario.visualizer.routingTableVisualizer lineColor "\"black\""
par Scenario.visualizer.routingTableVisualizer lineStyle "\"solid\""
par Scenario.visualizer.routingTableVisualizer lineWidth 2
par Scenario.visualizer.routingTableVisualizer lineShift 16
par Scenario.visualizer.routingTableVisualizer lineShiftMode "\"normal\""
par Scenario.visualizer.routingTableVisualizer lineContactSpacing 3
par Scenario.visualizer.routingTableVisualizer lineContactMode "\"rectangular\""
attr enum circular,rectangular
par Scenario.visualizer.routingTableVisualizer labelFormat "\"%d/%m -> %g (%n)\""
par Scenario.visualizer.routingTableVisualizer labelFont "\"<default>, 8px\""
par Scenario.visualizer.routingTableVisualizer labelColor "\"black\""
par Scenario.visualizer.routingTableVisualizer zIndex 0
par Scenario.visualizer.transportRouteVisualizer typename "\"inet.visualizer.canvas.transportlayer.TransportRouteCanvasVisualizer\""
par Scenario.visualizer.transportRouteVisualizer visualizationTargetModule "\"^.^\""
par Scenario.visualizer.transportRouteVisualizer visualizationSubjectModule "\"^.^\""
par Scenario.visualizer.transportRouteVisualizer tags "\"\""
par Scenario.visualizer.transportRouteVisualizer displayRoutes false
par Scenario.visualizer.transportRouteVisualizer startPathSignal "\"packetReceivedFromUpper\""
par Scenario.visualizer.transportRouteVisualizer extendPathSignal "\"packetReceivedFromLower\""
par Scenario.visualizer.transportRouteVisualizer endPathSignal "\"packetSentToUpper\""
par Scenario.visualizer.transportRouteVisualizer nodeFilter "\"*\""
par Scenario.visualizer.transportRouteVisualizer packetFilter "\"*\""
par Scenario.visualizer.transportRouteVisualizer packetDataFilter "\"*\""
par Scenario.visualizer.transportRouteVisualizer lineColor "\"dark\""
attr enum light,dark
par Scenario.visualizer.transportRouteVisualizer lineStyle "\"solid\""
par Scenario.visualizer.transportRouteVisualizer lineWidth 3
par Scenario.visualizer.transportRouteVisualizer lineSmooth false
par Scenario.visualizer.transportRouteVisualizer lineShift 16
par Scenario.visualizer.transportRouteVisualizer lineShiftMode "\"normal\""
par Scenario.visualizer.transportRouteVisualizer lineContactSpacing 3
par Scenario.visualizer.transportRouteVisualizer lineContactMode "\"rectangular\""
attr enum circular,rectangular
par Scenario.visualizer.transportRouteVisualizer labelFormat "\"%n\""
par Scenario.visualizer.transportRouteVisualizer labelFont "\"<default>, 8px\""
par Scenario.visualizer.transportRouteVisualizer labelColor "\"\""
par Scenario.visualizer.transportRouteVisualizer fadeOutMode "\"realTime\""
attr enum realTime,animationTime,simulationTime
par Scenario.visualizer.transportRouteVisualizer fadeOutTime 1s
attr unit s
par Scenario.visualizer.transportRouteVisualizer fadeOutAnimationSpeed 0
par Scenario.visualizer.transportRouteVisualizer zIndex 4
par Scenario.visualizer.transportConnectionVisualizer typename "\"inet.visualizer.canvas.transportlayer.TransportConnectionCanvasVisualizer\""
par Scenario.visualizer.transportConnectionVisualizer visualizationTargetModule "\"^.^\""
par Scenario.visualizer.transportConnectionVisualizer visualizationSubjectModule "\"^.^\""
par Scenario.visualizer.transportConnectionVisualizer tags "\"\""
par Scenario.visualizer.transportConnectionVisualizer networkNodeVisualizerModule "\"^.networkNodeVisualizer\""
par Scenario.visualizer.transportConnectionVisualizer displayTransportConnections false
par Scenario.visualizer.transportConnectionVisualizer sourceNodeFilter "\"*\""
par Scenario.visualizer.transportConnectionVisualizer sourcePortFilter "\"*\""
par Scenario.visualizer.transportConnectionVisualizer destinationNodeFilter "\"*\""
par Scenario.visualizer.transportConnectionVisualizer destinationPortFilter "\"*\""
par Scenario.visualizer.transportConnectionVisualizer icon "\"misc/marker_s\""
par Scenario.visualizer.transportConnectionVisualizer iconColor "\"dark\""
attr enum light,dark
par Scenario.visualizer.transportConnectionVisualizer labelFont "\"<default>\""
par Scenario.visualizer.transportConnectionVisualizer labelColor "\"black\""
par Scenario.visualizer.transportConnectionVisualizer placementHint "\"top\""
par Scenario.visualizer.transportConnectionVisualizer placementPriority 0
par Scenario.visualizer.transportConnectionVisualizer zIndex 4
par Scenario.visualizer typename "\"inet.visualizer.canvas.integrated.IntegratedCanvasVisualizer\""
par Scenario.physicalEnvironment typename "\"inet.environment.common.PhysicalEnvironment\""
par Scenario.physicalEnvironment coordinateSystemModule "\"\""
par Scenario.physicalEnvironment temperature 293K
attr unit K
par Scenario.physicalEnvironment spaceMinX "nan m"
attr unit m
par Scenario.physicalEnvironment spaceMinY "nan m"
attr unit m
par Scenario.physicalEnvironment spaceMinZ "nan m"
attr unit m
par Scenario.physicalEnvironment spaceMaxX "nan m"
attr unit m
par Scenario.physicalEnvironment spaceMaxY "nan m"
attr unit m
par Scenario.physicalEnvironment spaceMaxZ "nan m"
attr unit m
par Scenario.physicalEnvironment config "<config/> at content:1"
par Scenario.roadsCanvasVisualizer typename "\"org.car2x.veins.visualizer.roads.RoadsCanvasVisualizer\""
par Scenario.roadsCanvasVisualizer enabled true
par Scenario.roadsCanvasVisualizer lineZIndex -1
par Scenario.roadsCanvasVisualizer lineColor "\"firebrick4\""
par Scenario.roadsCanvasVisualizer lineWidth 1
par Scenario.roadsCanvasVisualizer lineWidthZoom false
par Scenario.roadsOsgVisualizer typename "\"org.car2x.veins.visualizer.roads.RoadsOsgVisualizer\""
par Scenario.roadsOsgVisualizer enabled true
par Scenario.roadsOsgVisualizer lineColor "\"firebrick4\""
par Scenario.roadsOsgVisualizer lineWidth 1
par Scenario typename "\"wireless.simulations.straight.Scenario\""

