version 3
run General-0-20210601-18:47:47-3334944
attr configname General
attr datetime 20210601-18:47:47
attr datetimef 20210601-184747
attr experiment General
attr inifile omnetpp.ini
attr iterationvars ""
attr iterationvarsd ""
attr iterationvarsf ""
attr measurement ""
attr network Scenario
attr processid 3334944
attr repetition 0
attr replication #0
attr resultdir results
attr runnumber 0
attr seedset 0
config image-path /opt/omnetpp/samples/inet4.3/images:/home/joppe/Files/Study/MSc/2020-2021/2B/AHN/veins/images
config network Scenario
config debug-on-errors true
config *.node*.numApps 1
config *.node*.app[0].typename wireless.StaticApplication
config *.node*.app[0].interface "\"wlan0\""
config *.beaconPeriod 0.1
config *.node*.mobility.typename inet.mobility.static.StationaryMobility
config *.node*.mobility.initFromDisplayString true
config *.node*.wlan[0].opMode "\"p\""
config *.node*.wlan[0].radio.typename Ieee80211DimensionalRadio
config *.node*.wlan[0].radio.bandName "\"5.9 GHz\""
config *.node*.wlan[0].radio.channelNumber 3
config *.node*.wlan[0].radio.transmitter.power 20mW
config *.node*.wlan[0].radio.bandwidth "10 MHz"
config *.node*.wlan[*].radio.antenna.mobility.typename AttachedMobility
config *.node*.wlan[*].radio.antenna.mobility.mobilityModule "\"^.^.^.^.mobility\""
config *.node*.wlan[*].radio.antenna.mobility.offsetX -2.5m
config *.node*.wlan[*].radio.antenna.mobility.offsetZ 1.5m
config *.node*.wlan[*].radio.antenna.mobility.constraintAreaMinX 0m
config *.node*.wlan[*].radio.antenna.mobility.constraintAreaMaxX 0m
config *.node*.wlan[*].radio.antenna.mobility.constraintAreaMinY 0m
config *.node*.wlan[*].radio.antenna.mobility.constraintAreaMaxY 0m
config *.node*.wlan[*].radio.antenna.mobility.constraintAreaMinZ 0m
config *.node*.wlan[*].radio.antenna.mobility.constraintAreaMaxZ 0m
config *.node*.ipv4.configurator.typename HostAutoConfigurator
config *.node*.ipv4.configurator.interfaces "\"wlan0\""
config *.node*.ipv4.configurator.mcastGroups "\"224.0.0.1\""

par Scenario.radioMedium.propagation typename "\"inet.physicallayer.wireless.common.propagation.ConstantSpeedPropagation\""
par Scenario.radioMedium.propagation propagationSpeed 2.99792e+08mps
attr unit mps
par Scenario.radioMedium.propagation ignoreMovementDuringTransmission true
par Scenario.radioMedium.propagation ignoreMovementDuringPropagation true
par Scenario.radioMedium.propagation ignoreMovementDuringReception true
scalar Scenario.radioMedium.propagation "Arrival computation count" 30
par Scenario.radioMedium.analogModel typename "\"inet.physicallayer.wireless.common.analogmodel.packetlevel.DimensionalAnalogModel\""
par Scenario.radioMedium.analogModel attenuateWithCenterFrequency true
par Scenario.radioMedium.backgroundNoise typename "\"inet.physicallayer.wireless.common.backgroundnoise.IsotropicDimensionalBackgroundNoise\""
par Scenario.radioMedium.backgroundNoise powerSpectralDensity "nan dBmWpMHz"
attr unit dBmWpMHz
par Scenario.radioMedium.backgroundNoise power -110dBm
attr unit dBm
par Scenario.radioMedium.backgroundNoise bandwidth "nan Hz"
attr unit Hz
par Scenario.radioMedium.pathLoss typename "\"inet.physicallayer.wireless.common.pathloss.FreeSpacePathLoss\""
par Scenario.radioMedium.pathLoss alpha 2
par Scenario.radioMedium.pathLoss systemLoss 0dB
attr unit dB
par Scenario.radioMedium.mediumLimitCache typename "\"inet.physicallayer.wireless.common.medium.MediumLimitCache\""
par Scenario.radioMedium.mediumLimitCache centerFrequency 2.4e+09Hz
attr unit Hz
par Scenario.radioMedium.mediumLimitCache maxSpeed "nan mps"
attr unit mps
par Scenario.radioMedium.mediumLimitCache maxTransmissionPower "nan W"
attr unit W
par Scenario.radioMedium.mediumLimitCache minInterferencePower -110dBm
attr unit dBm
par Scenario.radioMedium.mediumLimitCache minReceptionPower -85dBm
attr unit dBm
par Scenario.radioMedium.mediumLimitCache maxAntennaGain 0dB
attr unit dB
par Scenario.radioMedium.mediumLimitCache minInterferenceTime 1e-12s
attr unit s
par Scenario.radioMedium.mediumLimitCache maxTransmissionDuration 0.01s
attr unit s
par Scenario.radioMedium.mediumLimitCache maxCommunicationRange "nan m"
attr unit m
par Scenario.radioMedium.mediumLimitCache maxInterferenceRange "nan m"
attr unit m
par Scenario.radioMedium.communicationCache typename "\"inet.physicallayer.wireless.common.communicationcache.VectorCommunicationCache\""
par Scenario.radioMedium typename "\"inet.physicallayer.wireless.ieee80211.packetlevel.Ieee80211DimensionalRadioMedium\""
par Scenario.radioMedium physicalEnvironmentModule "\"physicalEnvironment\""
par Scenario.radioMedium signalAnalogRepresentation "\"scalar\""
attr enum unitDisk,scalar,dimensional
par Scenario.radioMedium rangeFilter "\"\""
par Scenario.radioMedium radioModeFilter false
par Scenario.radioMedium listeningFilter false
par Scenario.radioMedium macAddressFilter false
par Scenario.radioMedium recordTransmissionLog false
par Scenario.radioMedium recordReceptionLog false
scalar Scenario.radioMedium "transmission count" 5
scalar Scenario.radioMedium "signal send count" 30
scalar Scenario.radioMedium "reception computation count" 30
scalar Scenario.radioMedium "interference computation count" 90
scalar Scenario.radioMedium "reception decision computation count" 24
scalar Scenario.radioMedium "listening decision computation count" 36
scalar Scenario.radioMedium "reception cache hit" 83.870967741935
attr unit %
scalar Scenario.radioMedium "interference cache hit" 66.666666666667
attr unit %
scalar Scenario.radioMedium "noise cache hit" 0
attr unit %
scalar Scenario.radioMedium "snir cache hit" 50
attr unit %
scalar Scenario.radioMedium "reception decision cache hit" 50
attr unit %
scalar Scenario.radioMedium "reception result cache hit" 0
attr unit %
par Scenario.visualizer.sceneVisualizer typename "\"inet.visualizer.canvas.scene.SceneCanvasVisualizer\""
par Scenario.visualizer.sceneVisualizer visualizationTargetModule "\"^.^\""
par Scenario.visualizer.sceneVisualizer visualizationSubjectModule "\"^.^\""
par Scenario.visualizer.sceneVisualizer tags "\"\""
par Scenario.visualizer.sceneVisualizer physicalEnvironmentModule "\"physicalEnvironment\""
par Scenario.visualizer.sceneVisualizer networkNodeVisualizerModule "\"^.networkNodeVisualizer\""
par Scenario.visualizer.sceneVisualizer axisLength "nan m"
attr unit m
par Scenario.visualizer.sceneVisualizer animationSpeed 0
par Scenario.visualizer.sceneVisualizer sceneMinX "nan m"
attr unit m
par Scenario.visualizer.sceneVisualizer sceneMinY "nan m"
attr unit m
par Scenario.visualizer.sceneVisualizer sceneMinZ "nan m"
attr unit m
par Scenario.visualizer.sceneVisualizer sceneMaxX "nan m"
attr unit m
par Scenario.visualizer.sceneVisualizer sceneMaxY "nan m"
attr unit m
par Scenario.visualizer.sceneVisualizer sceneMaxZ "nan m"
attr unit m
par Scenario.visualizer.sceneVisualizer zIndex 0
par Scenario.visualizer.sceneVisualizer viewAngle "\"x right y down z out\""
par Scenario.visualizer.sceneVisualizer viewScale "\"1 1\""
par Scenario.visualizer.sceneVisualizer viewTranslation "\"0 0\""
par Scenario.visualizer.sceneVisualizer descriptionFigure "\"\""
par Scenario.visualizer.physicalEnvironmentVisualizer typename "\"inet.visualizer.canvas.environment.PhysicalEnvironmentCanvasVisualizer\""
par Scenario.visualizer.physicalEnvironmentVisualizer visualizationTargetModule "\"^.^\""
par Scenario.visualizer.physicalEnvironmentVisualizer visualizationSubjectModule "\"^.^\""
par Scenario.visualizer.physicalEnvironmentVisualizer tags "\"\""
par Scenario.visualizer.physicalEnvironmentVisualizer physicalEnvironmentModule "\"physicalEnvironment\""
par Scenario.visualizer.physicalEnvironmentVisualizer displayObjects true
par Scenario.visualizer.physicalEnvironmentVisualizer zIndex 0
par Scenario.visualizer.networkNodeVisualizer typename "\"inet.visualizer.canvas.scene.NetworkNodeCanvasVisualizer\""
par Scenario.visualizer.networkNodeVisualizer visualizationTargetModule "\"^.^\""
par Scenario.visualizer.networkNodeVisualizer visualizationSubjectModule "\"^.^\""
par Scenario.visualizer.networkNodeVisualizer tags "\"\""
par Scenario.visualizer.networkNodeVisualizer nodeFilter "\"*\""
par Scenario.visualizer.networkNodeVisualizer annotationSpacing 4
par Scenario.visualizer.networkNodeVisualizer placementPenalty 10
par Scenario.visualizer.networkNodeVisualizer zIndex 0
par Scenario.visualizer.networkConnectionVisualizer typename "\"inet.visualizer.canvas.scene.NetworkConnectionCanvasVisualizer\""
par Scenario.visualizer.networkConnectionVisualizer visualizationTargetModule "\"^.^\""
par Scenario.visualizer.networkConnectionVisualizer visualizationSubjectModule "\"^.^\""
par Scenario.visualizer.networkConnectionVisualizer tags "\"\""
par Scenario.visualizer.networkConnectionVisualizer displayNetworkConnections true
par Scenario.visualizer.networkConnectionVisualizer nodeFilter "\"\""
par Scenario.visualizer.networkConnectionVisualizer lineColor "\"black\""
par Scenario.visualizer.networkConnectionVisualizer lineStyle "\"solid\""
par Scenario.visualizer.networkConnectionVisualizer lineWidth 1
par Scenario.visualizer.networkConnectionVisualizer zIndex 0
par Scenario.visualizer.mobilityVisualizer typename "\"inet.visualizer.canvas.mobility.MobilityCanvasVisualizer\""
par Scenario.visualizer.mobilityVisualizer visualizationTargetModule "\"^.^\""
par Scenario.visualizer.mobilityVisualizer visualizationSubjectModule "\"^.^\""
par Scenario.visualizer.mobilityVisualizer tags "\"\""
par Scenario.visualizer.mobilityVisualizer networkNodeVisualizerModule "\"^.networkNodeVisualizer\""
par Scenario.visualizer.mobilityVisualizer displayMobility true
par Scenario.visualizer.mobilityVisualizer animationSpeed 0
par Scenario.visualizer.mobilityVisualizer moduleFilter "\"**.mobility\""
par Scenario.visualizer.mobilityVisualizer displayPositions false
par Scenario.visualizer.mobilityVisualizer positionCircleRadius 4
par Scenario.visualizer.mobilityVisualizer positionCircleLineWidth 1
par Scenario.visualizer.mobilityVisualizer positionCircleLineColor "\"dark\""
attr enum light,dark
par Scenario.visualizer.mobilityVisualizer positionCircleFillColor "\"dark\""
attr enum light,dark
par Scenario.visualizer.mobilityVisualizer displayOrientations false
par Scenario.visualizer.mobilityVisualizer orientationPieRadius 32
par Scenario.visualizer.mobilityVisualizer orientationPieSize 0.2
par Scenario.visualizer.mobilityVisualizer orientationPieOpacity 0.25
par Scenario.visualizer.mobilityVisualizer orientationLineColor "\"black\""
par Scenario.visualizer.mobilityVisualizer orientationLineStyle "\"solid\""
par Scenario.visualizer.mobilityVisualizer orientationLineWidth 1
par Scenario.visualizer.mobilityVisualizer orientationFillColor "\"blue\""
par Scenario.visualizer.mobilityVisualizer displayVelocities false
par Scenario.visualizer.mobilityVisualizer velocityArrowScale 1
par Scenario.visualizer.mobilityVisualizer velocityLineColor "\"black\""
par Scenario.visualizer.mobilityVisualizer velocityLineStyle "\"solid\""
par Scenario.visualizer.mobilityVisualizer velocityLineWidth 1
par Scenario.visualizer.mobilityVisualizer displayMovementTrails false
par Scenario.visualizer.mobilityVisualizer movementTrailLineColor "\"dark\""
attr enum light,dark
par Scenario.visualizer.mobilityVisualizer movementTrailLineStyle "\"solid\""
par Scenario.visualizer.mobilityVisualizer movementTrailLineWidth 1
par Scenario.visualizer.mobilityVisualizer trailLength 100
par Scenario.visualizer.mobilityVisualizer zIndex 0
par Scenario.visualizer.statisticVisualizer typename "\"inet.visualizer.canvas.common.StatisticCanvasVisualizer\""
par Scenario.visualizer.statisticVisualizer visualizationTargetModule "\"^.^\""
par Scenario.visualizer.statisticVisualizer visualizationSubjectModule "\"^.^\""
par Scenario.visualizer.statisticVisualizer tags "\"\""
par Scenario.visualizer.statisticVisualizer networkNodeVisualizerModule "\"^.networkNodeVisualizer\""
par Scenario.visualizer.statisticVisualizer displayStatistics true
par Scenario.visualizer.statisticVisualizer signalName "\"\""
par Scenario.visualizer.statisticVisualizer statisticName "\"\""
par Scenario.visualizer.statisticVisualizer statisticUnit "\"\""
par Scenario.visualizer.statisticVisualizer statisticExpression "\"\""
par Scenario.visualizer.statisticVisualizer sourceFilter "\"**\""
par Scenario.visualizer.statisticVisualizer format "\"%n: %v %u\""
par Scenario.visualizer.statisticVisualizer unit "\"\""
par Scenario.visualizer.statisticVisualizer font "\"<default>\""
par Scenario.visualizer.statisticVisualizer textColor "\"black\""
par Scenario.visualizer.statisticVisualizer backgroundColor "\"white\""
par Scenario.visualizer.statisticVisualizer opacity 1
par Scenario.visualizer.statisticVisualizer placementHint "\"top\""
par Scenario.visualizer.statisticVisualizer placementPriority 0
par Scenario.visualizer.statisticVisualizer zIndex 10
par Scenario.visualizer.statisticVisualizer propertyName "\"\""
par Scenario.visualizer.statisticVisualizer propertyIndex "\"\""
par Scenario.visualizer.infoVisualizer typename "\"inet.visualizer.canvas.common.InfoCanvasVisualizer\""
par Scenario.visualizer.infoVisualizer visualizationTargetModule "\"^.^\""
par Scenario.visualizer.infoVisualizer visualizationSubjectModule "\"^.^\""
par Scenario.visualizer.infoVisualizer tags "\"\""
par Scenario.visualizer.infoVisualizer networkNodeVisualizerModule "\"^.networkNodeVisualizer\""
par Scenario.visualizer.infoVisualizer displayInfos true
par Scenario.visualizer.infoVisualizer modules "\"\""
par Scenario.visualizer.infoVisualizer format "\"%t\""
par Scenario.visualizer.infoVisualizer font "\"<default>\""
par Scenario.visualizer.infoVisualizer textColor "\"black\""
par Scenario.visualizer.infoVisualizer backgroundColor "\"white\""
par Scenario.visualizer.infoVisualizer opacity 1
par Scenario.visualizer.infoVisualizer placementHint "\"top\""
par Scenario.visualizer.infoVisualizer placementPriority 0
par Scenario.visualizer.infoVisualizer zIndex 10
par Scenario.visualizer.energyStorageVisualizer typename "\"inet.visualizer.canvas.power.EnergyStorageCanvasVisualizer\""
par Scenario.visualizer.energyStorageVisualizer visualizationTargetModule "\"^.^\""
par Scenario.visualizer.energyStorageVisualizer visualizationSubjectModule "\"^.^\""
par Scenario.visualizer.energyStorageVisualizer tags "\"\""
par Scenario.visualizer.energyStorageVisualizer networkNodeVisualizerModule "\"^.networkNodeVisualizer\""
par Scenario.visualizer.energyStorageVisualizer displayEnergyStorages false
par Scenario.visualizer.energyStorageVisualizer energyStorageFilter "\"**\""
par Scenario.visualizer.energyStorageVisualizer color "\"green\""
par Scenario.visualizer.energyStorageVisualizer width 8
par Scenario.visualizer.energyStorageVisualizer height 24
par Scenario.visualizer.energyStorageVisualizer spacing 2
par Scenario.visualizer.energyStorageVisualizer placementHint "\"right\""
par Scenario.visualizer.energyStorageVisualizer placementPriority 0
par Scenario.visualizer.energyStorageVisualizer zIndex 10
par Scenario.visualizer.mediumVisualizer typename "\"inet.visualizer.canvas.physicallayer.MediumCanvasVisualizer\""
par Scenario.visualizer.mediumVisualizer visualizationTargetModule "\"^.^\""
par Scenario.visualizer.mediumVisualizer visualizationSubjectModule "\"^.^\""
par Scenario.visualizer.mediumVisualizer tags "\"\""
par Scenario.visualizer.mediumVisualizer mediumModule "\"radioMedium\""
par Scenario.visualizer.mediumVisualizer networkNodeVisualizerModule "\"^.networkNodeVisualizer\""
par Scenario.visualizer.mediumVisualizer nodeFilter "\"*\""
par Scenario.visualizer.mediumVisualizer interfaceFilter "\"*\""
par Scenario.visualizer.mediumVisualizer packetFilter "\"*\""
par Scenario.visualizer.mediumVisualizer packetDataFilter "\"*\""
par Scenario.visualizer.mediumVisualizer displaySignals false
par Scenario.visualizer.mediumVisualizer signalColor "\"dark\""
attr enum light,dark
par Scenario.visualizer.mediumVisualizer signalPropagationAnimationSpeed "nan "
par Scenario.visualizer.mediumVisualizer signalPropagationAnimationTime 1s
attr unit s
par Scenario.visualizer.mediumVisualizer signalPropagationAdditionalTime 0s
attr unit s
par Scenario.visualizer.mediumVisualizer signalTransmissionAnimationSpeed "nan "
par Scenario.visualizer.mediumVisualizer signalTransmissionAnimationTime 1s
attr unit s
par Scenario.visualizer.mediumVisualizer signalAnimationSpeedChangeTimeMode "\"realTime\""
attr enum realTime,animationTime,simulationTime
par Scenario.visualizer.mediumVisualizer signalAnimationSpeedChangeTime 1s
attr unit s
par Scenario.visualizer.mediumVisualizer displaySignalDepartures false
par Scenario.visualizer.mediumVisualizer signalDepartureImage "\"misc/signal_departure.png\""
par Scenario.visualizer.mediumVisualizer signalDeparturePlacementHint "\"topCenter\""
par Scenario.visualizer.mediumVisualizer signalDeparturePlacementPriority 1
par Scenario.visualizer.mediumVisualizer displaySignalArrivals false
par Scenario.visualizer.mediumVisualizer signalArrivalImage "\"misc/signal_arrival.png\""
par Scenario.visualizer.mediumVisualizer signalArrivalPlacementHint "\"topCenter\""
par Scenario.visualizer.mediumVisualizer signalArrivalPlacementPriority -1
par Scenario.visualizer.mediumVisualizer displayCommunicationRanges false
par Scenario.visualizer.mediumVisualizer communicationRangeLineColor "\"blue\""
par Scenario.visualizer.mediumVisualizer communicationRangeLineStyle "\"solid\""
par Scenario.visualizer.mediumVisualizer communicationRangeLineWidth 1
par Scenario.visualizer.mediumVisualizer displayInterferenceRanges false
par Scenario.visualizer.mediumVisualizer interferenceRangeLineColor "\"gray\""
par Scenario.visualizer.mediumVisualizer interferenceRangeLineStyle "\"solid\""
par Scenario.visualizer.mediumVisualizer interferenceRangeLineWidth 1
par Scenario.visualizer.mediumVisualizer autoPowerAxis true
par Scenario.visualizer.mediumVisualizer signalMinPower "inf dBmW"
attr unit dBmW
par Scenario.visualizer.mediumVisualizer signalMaxPower 0dBmW
attr unit dBmW
par Scenario.visualizer.mediumVisualizer signalMinPowerDensity "inf dBmWpMHz"
attr unit dBmWpMHz
par Scenario.visualizer.mediumVisualizer signalMaxPowerDensity "-inf dBmWpMHz"
attr unit dBmWpMHz
par Scenario.visualizer.mediumVisualizer autoTimeAxis true
par Scenario.visualizer.mediumVisualizer signalMinTime 0s
attr unit s
par Scenario.visualizer.mediumVisualizer signalMaxTime 0s
attr unit s
par Scenario.visualizer.mediumVisualizer autoFrequencyAxis true
par Scenario.visualizer.mediumVisualizer signalMinFrequency "inf Hz"
attr unit Hz
par Scenario.visualizer.mediumVisualizer signalMaxFrequency "-inf Hz"
attr unit Hz
par Scenario.visualizer.mediumVisualizer displayMainPowerDensityMap false
par Scenario.visualizer.mediumVisualizer mainPowerDensityMapPixmapDensity 1
par Scenario.visualizer.mediumVisualizer mainPowerDensityMapMinX 0
par Scenario.visualizer.mediumVisualizer mainPowerDensityMapMaxX "nan "
par Scenario.visualizer.mediumVisualizer mainPowerDensityMapMinY 0
par Scenario.visualizer.mediumVisualizer mainPowerDensityMapMaxY "nan "
par Scenario.visualizer.mediumVisualizer mainPowerDensityMapZ 0
par Scenario.visualizer.mediumVisualizer mainPowerDensityMapFigureXTickCount 3
par Scenario.visualizer.mediumVisualizer mainPowerDensityMapFigureYTickCount 3
par Scenario.visualizer.mediumVisualizer displayPowerDensityMaps false
par Scenario.visualizer.mediumVisualizer powerDensityMapMode "\"auto\""
attr enum total,signal,auto
par Scenario.visualizer.mediumVisualizer powerDensityMapPixelMode "\"mean\""
attr enum sample,partition,mean
par Scenario.visualizer.mediumVisualizer powerDensityMapApproximationSize 10
par Scenario.visualizer.mediumVisualizer powerDensityMapCenterFrequency "nan Hz"
attr unit Hz
par Scenario.visualizer.mediumVisualizer powerDensityMapBandwidth 0Hz
attr unit Hz
par Scenario.visualizer.mediumVisualizer powerDensityMapFigureWidth 200
par Scenario.visualizer.mediumVisualizer powerDensityMapFigureHeight 120
par Scenario.visualizer.mediumVisualizer powerDensityMapPixmapWidth 200
par Scenario.visualizer.mediumVisualizer powerDensityMapPixmapHeight 120
par Scenario.visualizer.mediumVisualizer powerDensityMapZ 0
par Scenario.visualizer.mediumVisualizer powerDensityMapFigureXTickCount 3
par Scenario.visualizer.mediumVisualizer powerDensityMapFigureYTickCount 3
par Scenario.visualizer.mediumVisualizer displaySpectrums false
par Scenario.visualizer.mediumVisualizer spectrumMode "\"auto\""
attr enum total,signal,auto
par Scenario.visualizer.mediumVisualizer spectrumFigureWidth 200
par Scenario.visualizer.mediumVisualizer spectrumFigureHeight 120
par Scenario.visualizer.mediumVisualizer spectrumFigureXTickCount 3
par Scenario.visualizer.mediumVisualizer spectrumFigureYTickCount 5
par Scenario.visualizer.mediumVisualizer spectrumFigureInterpolationSize 5
par Scenario.visualizer.mediumVisualizer spectrumPlacementHint "\"bottomCenter\""
par Scenario.visualizer.mediumVisualizer spectrumPlacementPriority -1
par Scenario.visualizer.mediumVisualizer displaySpectrograms false
par Scenario.visualizer.mediumVisualizer spectrogramMode "\"auto\""
attr enum total,signal,auto
par Scenario.visualizer.mediumVisualizer spectrogramPixelMode "\"mean\""
attr enum sample,partition,mean
par Scenario.visualizer.mediumVisualizer spectrogramFigureWidth 200
par Scenario.visualizer.mediumVisualizer spectrogramFigureHeight 120
par Scenario.visualizer.mediumVisualizer spectrogramPixmapWidth 200
par Scenario.visualizer.mediumVisualizer spectrogramPixmapHeight 120
par Scenario.visualizer.mediumVisualizer spectrogramFigureXTickCount 3
par Scenario.visualizer.mediumVisualizer spectrogramFigureYTickCount 5
par Scenario.visualizer.mediumVisualizer spectrogramPlacementHint "\"bottomCenter\""
par Scenario.visualizer.mediumVisualizer spectrogramPlacementPriority -1
par Scenario.visualizer.mediumVisualizer zIndex 0
par Scenario.visualizer.mediumVisualizer signalShape "\"ring\""
attr enum ring,sphere
par Scenario.visualizer.mediumVisualizer signalOpacity 0.5
par Scenario.visualizer.mediumVisualizer signalRingCount 20
par Scenario.visualizer.mediumVisualizer signalRingSize 50m
attr unit m
par Scenario.visualizer.mediumVisualizer signalFadingDistance 50m
attr unit m
par Scenario.visualizer.mediumVisualizer signalFadingFactor 1.2
par Scenario.visualizer.mediumVisualizer signalWaveCount 20
par Scenario.visualizer.mediumVisualizer signalWaveLength 50m
attr unit m
par Scenario.visualizer.mediumVisualizer signalWaveWidth 10m
attr unit m
par Scenario.visualizer.mediumVisualizer signalWaveFadingAnimationSpeedFactor 1
par Scenario.visualizer.mediumVisualizer displayCommunicationHeat false
par Scenario.visualizer.obstacleLossVisualizer typename "\"inet.visualizer.canvas.physicallayer.TracingObstacleLossCanvasVisualizer\""
par Scenario.visualizer.obstacleLossVisualizer visualizationTargetModule "\"^.^\""
par Scenario.visualizer.obstacleLossVisualizer visualizationSubjectModule "\"^.^\""
par Scenario.visualizer.obstacleLossVisualizer tags "\"\""
par Scenario.visualizer.obstacleLossVisualizer displayIntersections false
par Scenario.visualizer.obstacleLossVisualizer intersectionLineColor "\"red\""
par Scenario.visualizer.obstacleLossVisualizer intersectionLineStyle "\"solid\""
par Scenario.visualizer.obstacleLossVisualizer intersectionLineWidth 1
par Scenario.visualizer.obstacleLossVisualizer displayFaceNormalVectors false
par Scenario.visualizer.obstacleLossVisualizer faceNormalLineColor "\"grey\""
par Scenario.visualizer.obstacleLossVisualizer faceNormalLineStyle "\"solid\""
par Scenario.visualizer.obstacleLossVisualizer faceNormalLineWidth 1
par Scenario.visualizer.obstacleLossVisualizer fadeOutMode "\"realTime\""
attr enum realTime,animationTime,simulationTime
par Scenario.visualizer.obstacleLossVisualizer fadeOutTime 1s
attr unit s
par Scenario.visualizer.obstacleLossVisualizer fadeOutAnimationSpeed 0
par Scenario.visualizer.obstacleLossVisualizer zIndex 0
par Scenario.visualizer.packetDropVisualizer typename "\"inet.visualizer.canvas.common.PacketDropCanvasVisualizer\""
par Scenario.visualizer.packetDropVisualizer visualizationTargetModule "\"^.^\""
par Scenario.visualizer.packetDropVisualizer visualizationSubjectModule "\"^.^\""
par Scenario.visualizer.packetDropVisualizer tags "\"\""
par Scenario.visualizer.packetDropVisualizer displayPacketDrops false
par Scenario.visualizer.packetDropVisualizer nodeFilter "\"*\""
par Scenario.visualizer.packetDropVisualizer interfaceFilter "\"*\""
par Scenario.visualizer.packetDropVisualizer packetFilter "\"*\""
par Scenario.visualizer.packetDropVisualizer packetDataFilter "\"*\""
par Scenario.visualizer.packetDropVisualizer detailsFilter "\"*\""
par Scenario.visualizer.packetDropVisualizer icon "\"msg/packet_s\""
par Scenario.visualizer.packetDropVisualizer iconTintAmount 1
par Scenario.visualizer.packetDropVisualizer iconTintColor "\"dark\""
par Scenario.visualizer.packetDropVisualizer labelFormat "\"%n\""
par Scenario.visualizer.packetDropVisualizer labelFont "\"<default>\""
par Scenario.visualizer.packetDropVisualizer labelColor "\"black\""
par Scenario.visualizer.packetDropVisualizer fadeOutMode "\"realTime\""
attr enum realTime,animationTime,simulationTime
par Scenario.visualizer.packetDropVisualizer fadeOutTime 1s
attr unit s
par Scenario.visualizer.packetDropVisualizer fadeOutAnimationSpeed 0
par Scenario.visualizer.packetDropVisualizer zIndex 10
par Scenario.visualizer.packetDropVisualizer dx 32
par Scenario.visualizer.packetDropVisualizer dy 64
par Scenario.visualizer.packetFlowVisualizer typename "\"inet.visualizer.canvas.flow.PacketFlowCanvasVisualizer\""
par Scenario.visualizer.packetFlowVisualizer visualizationTargetModule "\"^.^\""
par Scenario.visualizer.packetFlowVisualizer visualizationSubjectModule "\"^.^\""
par Scenario.visualizer.packetFlowVisualizer tags "\"\""
par Scenario.visualizer.packetFlowVisualizer displayRoutes false
par Scenario.visualizer.packetFlowVisualizer startPathSignal "\"packetFlowStarted\""
par Scenario.visualizer.packetFlowVisualizer extendPathSignal "\"packetReceivedFromLower\""
par Scenario.visualizer.packetFlowVisualizer endPathSignal "\"packetFlowEnded\""
par Scenario.visualizer.packetFlowVisualizer nodeFilter "\"*\""
par Scenario.visualizer.packetFlowVisualizer packetFilter "\"*\""
par Scenario.visualizer.packetFlowVisualizer packetDataFilter "\"*\""
par Scenario.visualizer.packetFlowVisualizer lineColor "\"dark\""
attr enum light,dark
par Scenario.visualizer.packetFlowVisualizer lineStyle "\"dashed\""
par Scenario.visualizer.packetFlowVisualizer lineWidth 3
par Scenario.visualizer.packetFlowVisualizer lineSmooth false
par Scenario.visualizer.packetFlowVisualizer lineShift 16
par Scenario.visualizer.packetFlowVisualizer lineShiftMode "\"normal\""
par Scenario.visualizer.packetFlowVisualizer lineContactSpacing 3
par Scenario.visualizer.packetFlowVisualizer lineContactMode "\"rectangular\""
attr enum circular,rectangular
par Scenario.visualizer.packetFlowVisualizer labelFormat "\"%L %p pk (%l)\""
par Scenario.visualizer.packetFlowVisualizer labelFont "\"<default>, 8px\""
par Scenario.visualizer.packetFlowVisualizer labelColor "\"\""
par Scenario.visualizer.packetFlowVisualizer fadeOutMode "\"realTime\""
attr enum realTime,animationTime,simulationTime
par Scenario.visualizer.packetFlowVisualizer fadeOutTime 0s
attr unit s
par Scenario.visualizer.packetFlowVisualizer fadeOutAnimationSpeed 0
par Scenario.visualizer.packetFlowVisualizer zIndex 4
par Scenario.visualizer.queueVisualizer typename "\"inet.visualizer.canvas.common.QueueCanvasVisualizer\""
par Scenario.visualizer.queueVisualizer visualizationTargetModule "\"^.^\""
par Scenario.visualizer.queueVisualizer visualizationSubjectModule "\"^.^\""
par Scenario.visualizer.queueVisualizer tags "\"\""
par Scenario.visualizer.queueVisualizer networkNodeVisualizerModule "\"^.networkNodeVisualizer\""
par Scenario.visualizer.queueVisualizer displayQueues false
par Scenario.visualizer.queueVisualizer queueFilter "\"**\""
par Scenario.visualizer.queueVisualizer color "\"blue\""
par Scenario.visualizer.queueVisualizer width 8
par Scenario.visualizer.queueVisualizer height 24
par Scenario.visualizer.queueVisualizer spacing 2
par Scenario.visualizer.queueVisualizer placementHint "\"right\""
par Scenario.visualizer.queueVisualizer placementPriority 0
par Scenario.visualizer.queueVisualizer zIndex 10
par Scenario.visualizer.radioVisualizer typename "\"inet.visualizer.canvas.physicallayer.RadioCanvasVisualizer\""
par Scenario.visualizer.radioVisualizer visualizationTargetModule "\"^.^\""
par Scenario.visualizer.radioVisualizer visualizationSubjectModule "\"^.^\""
par Scenario.visualizer.radioVisualizer tags "\"\""
par Scenario.visualizer.radioVisualizer networkNodeVisualizerModule "\"^.networkNodeVisualizer\""
par Scenario.visualizer.radioVisualizer displayRadios false
par Scenario.visualizer.radioVisualizer displayRadioMode true
par Scenario.visualizer.radioVisualizer displayReceptionState true
par Scenario.visualizer.radioVisualizer displayTransmissionState true
par Scenario.visualizer.radioVisualizer displayAntennaLobes false
par Scenario.visualizer.radioVisualizer radioFilter "\"**\""
par Scenario.visualizer.radioVisualizer radioModeImages "\"block/process_vs block/timer_vs block/wrx_vs block/wtx_vs block/wrxtx_vs block/cogwheel_vs\""
par Scenario.visualizer.radioVisualizer receptionStateImages "\"- - misc/receiving misc/receiving\""
par Scenario.visualizer.radioVisualizer transmissionStateImages "\"- - misc/transmitting\""
par Scenario.visualizer.radioVisualizer width 16
par Scenario.visualizer.radioVisualizer height 16
par Scenario.visualizer.radioVisualizer placementHint "\"bottomRight\""
par Scenario.visualizer.radioVisualizer placementPriority 0
par Scenario.visualizer.radioVisualizer antennaLobeNormalize false
par Scenario.visualizer.radioVisualizer antennaLobeRelativeLabels false
par Scenario.visualizer.radioVisualizer antennaLobePlaneGlobal true
par Scenario.visualizer.radioVisualizer antennaLobePlane "\"view\""
attr enum view,xy,xz,yz
par Scenario.visualizer.radioVisualizer antennaLobeMode "\"logarithmic\""
attr enum logarithmic,linear
par Scenario.visualizer.radioVisualizer antennaLobeLogarithmicBase 10
par Scenario.visualizer.radioVisualizer antennaLobeLogarithmicScale 100
par Scenario.visualizer.radioVisualizer antennaLobeRadius 100
par Scenario.visualizer.radioVisualizer antennaLobeStep 10deg
attr unit deg
par Scenario.visualizer.radioVisualizer antennaLobeOpacity 0.25
par Scenario.visualizer.radioVisualizer antennaLobeLineSmooth true
par Scenario.visualizer.radioVisualizer antennaLobeLineColor "\"black\""
par Scenario.visualizer.radioVisualizer antennaLobeLineStyle "\"solid\""
par Scenario.visualizer.radioVisualizer antennaLobeLineWidth 1
par Scenario.visualizer.radioVisualizer antennaLobeFillColor "\"white\""
par Scenario.visualizer.radioVisualizer zIndex 10
par Scenario.visualizer.physicalLinkVisualizer typename "\"inet.visualizer.canvas.physicallayer.PhysicalLinkCanvasVisualizer\""
par Scenario.visualizer.physicalLinkVisualizer visualizationTargetModule "\"^.^\""
par Scenario.visualizer.physicalLinkVisualizer visualizationSubjectModule "\"^.^\""
par Scenario.visualizer.physicalLinkVisualizer tags "\"\""
par Scenario.visualizer.physicalLinkVisualizer displayLinks false
par Scenario.visualizer.physicalLinkVisualizer activityLevel "\"service\""
attr enum service,peer,protocol
par Scenario.visualizer.physicalLinkVisualizer nodeFilter "\"*\""
par Scenario.visualizer.physicalLinkVisualizer interfaceFilter "\"*\""
par Scenario.visualizer.physicalLinkVisualizer packetFilter "\"*\""
par Scenario.visualizer.physicalLinkVisualizer packetDataFilter "\"*\""
par Scenario.visualizer.physicalLinkVisualizer lineColor "\"olive\""
par Scenario.visualizer.physicalLinkVisualizer lineStyle "\"dotted\""
par Scenario.visualizer.physicalLinkVisualizer lineWidth 3
par Scenario.visualizer.physicalLinkVisualizer lineShift 16
par Scenario.visualizer.physicalLinkVisualizer lineShiftMode "\"normal\""
par Scenario.visualizer.physicalLinkVisualizer lineContactSpacing 3
par Scenario.visualizer.physicalLinkVisualizer lineContactMode "\"rectangular\""
attr enum circular,rectangular
par Scenario.visualizer.physicalLinkVisualizer labelFormat "\"%n\""
par Scenario.visualizer.physicalLinkVisualizer labelFont "\"<default>, 8px\""
par Scenario.visualizer.physicalLinkVisualizer labelColor "\"olive\""
par Scenario.visualizer.physicalLinkVisualizer fadeOutMode "\"realTime\""
attr enum realTime,animationTime,simulationTime
par Scenario.visualizer.physicalLinkVisualizer fadeOutTime 1s
attr unit s
par Scenario.visualizer.physicalLinkVisualizer fadeOutAnimationSpeed 0
par Scenario.visualizer.physicalLinkVisualizer holdAnimationTime 0s
attr unit s
par Scenario.visualizer.physicalLinkVisualizer zIndex 1
par Scenario.visualizer.interfaceTableVisualizer typename "\"inet.visualizer.canvas.linklayer.InterfaceTableCanvasVisualizer\""
par Scenario.visualizer.interfaceTableVisualizer visualizationTargetModule "\"^.^\""
par Scenario.visualizer.interfaceTableVisualizer visualizationSubjectModule "\"^.^\""
par Scenario.visualizer.interfaceTableVisualizer tags "\"\""
par Scenario.visualizer.interfaceTableVisualizer networkNodeVisualizerModule "\"^.networkNodeVisualizer\""
par Scenario.visualizer.interfaceTableVisualizer displayInterfaceTables false
par Scenario.visualizer.interfaceTableVisualizer displayWiredInterfacesAtConnections true
par Scenario.visualizer.interfaceTableVisualizer displayBackground false
par Scenario.visualizer.interfaceTableVisualizer nodeFilter "\"*\""
par Scenario.visualizer.interfaceTableVisualizer interfaceFilter "\"not(lo*)\""
par Scenario.visualizer.interfaceTableVisualizer format "\"%N %\\\\%a/%l\""
par Scenario.visualizer.interfaceTableVisualizer placementHint "\"top\""
par Scenario.visualizer.interfaceTableVisualizer placementPriority 0
par Scenario.visualizer.interfaceTableVisualizer font "\"<default>\""
par Scenario.visualizer.interfaceTableVisualizer textColor "\"#005030\""
par Scenario.visualizer.interfaceTableVisualizer backgroundColor "\"white\""
par Scenario.visualizer.interfaceTableVisualizer opacity 1
par Scenario.visualizer.interfaceTableVisualizer zIndex 10
par Scenario.visualizer.dataLinkVisualizer typename "\"inet.visualizer.canvas.linklayer.DataLinkCanvasVisualizer\""
par Scenario.visualizer.dataLinkVisualizer visualizationTargetModule "\"^.^\""
par Scenario.visualizer.dataLinkVisualizer visualizationSubjectModule "\"^.^\""
par Scenario.visualizer.dataLinkVisualizer tags "\"\""
par Scenario.visualizer.dataLinkVisualizer displayLinks false
par Scenario.visualizer.dataLinkVisualizer activityLevel "\"service\""
attr enum service,peer,protocol
par Scenario.visualizer.dataLinkVisualizer nodeFilter "\"*\""
par Scenario.visualizer.dataLinkVisualizer interfaceFilter "\"*\""
par Scenario.visualizer.dataLinkVisualizer packetFilter "\"*\""
par Scenario.visualizer.dataLinkVisualizer packetDataFilter "\"*\""
par Scenario.visualizer.dataLinkVisualizer lineColor "\"darkcyan\""
par Scenario.visualizer.dataLinkVisualizer lineStyle "\"solid\""
par Scenario.visualizer.dataLinkVisualizer lineWidth 3
par Scenario.visualizer.dataLinkVisualizer lineShift 16
par Scenario.visualizer.dataLinkVisualizer lineShiftMode "\"normal\""
par Scenario.visualizer.dataLinkVisualizer lineContactSpacing 3
par Scenario.visualizer.dataLinkVisualizer lineContactMode "\"rectangular\""
attr enum circular,rectangular
par Scenario.visualizer.dataLinkVisualizer labelFormat "\"%n\""
par Scenario.visualizer.dataLinkVisualizer labelFont "\"<default>, 8px\""
par Scenario.visualizer.dataLinkVisualizer labelColor "\"darkcyan\""
par Scenario.visualizer.dataLinkVisualizer fadeOutMode "\"realTime\""
attr enum realTime,animationTime,simulationTime
par Scenario.visualizer.dataLinkVisualizer fadeOutTime 1s
attr unit s
par Scenario.visualizer.dataLinkVisualizer fadeOutAnimationSpeed 0
par Scenario.visualizer.dataLinkVisualizer holdAnimationTime 0s
attr unit s
par Scenario.visualizer.dataLinkVisualizer zIndex 2
par Scenario.visualizer.linkBreakVisualizer typename "\"inet.visualizer.canvas.linklayer.LinkBreakCanvasVisualizer\""
par Scenario.visualizer.linkBreakVisualizer visualizationTargetModule "\"^.^\""
par Scenario.visualizer.linkBreakVisualizer visualizationSubjectModule "\"^.^\""
par Scenario.visualizer.linkBreakVisualizer tags "\"\""
par Scenario.visualizer.linkBreakVisualizer displayLinkBreaks false
par Scenario.visualizer.linkBreakVisualizer nodeFilter "\"*\""
par Scenario.visualizer.linkBreakVisualizer interfaceFilter "\"*\""
par Scenario.visualizer.linkBreakVisualizer packetFilter "\"*\""
par Scenario.visualizer.linkBreakVisualizer packetDataFilter "\"*\""
par Scenario.visualizer.linkBreakVisualizer icon "\"status/stop\""
par Scenario.visualizer.linkBreakVisualizer iconTintAmount 0
par Scenario.visualizer.linkBreakVisualizer iconTintColor "\"\""
par Scenario.visualizer.linkBreakVisualizer fadeOutMode "\"realTime\""
attr enum realTime,animationTime,simulationTime
par Scenario.visualizer.linkBreakVisualizer fadeOutTime 1s
attr unit s
par Scenario.visualizer.linkBreakVisualizer fadeOutAnimationSpeed 0
par Scenario.visualizer.linkBreakVisualizer zIndex 2
par Scenario.visualizer.ieee80211Visualizer typename "\"inet.visualizer.canvas.linklayer.Ieee80211CanvasVisualizer\""
par Scenario.visualizer.ieee80211Visualizer visualizationTargetModule "\"^.^\""
par Scenario.visualizer.ieee80211Visualizer visualizationSubjectModule "\"^.^\""
par Scenario.visualizer.ieee80211Visualizer tags "\"\""
par Scenario.visualizer.ieee80211Visualizer networkNodeVisualizerModule "\"^.networkNodeVisualizer\""
par Scenario.visualizer.ieee80211Visualizer displayAssociations false
par Scenario.visualizer.ieee80211Visualizer nodeFilter "\"*\""
par Scenario.visualizer.ieee80211Visualizer interfaceFilter "\"*\""
par Scenario.visualizer.ieee80211Visualizer minPower -85dBm
attr unit dBm
par Scenario.visualizer.ieee80211Visualizer maxPower -50dBm
attr unit dBm
par Scenario.visualizer.ieee80211Visualizer icons "\"misc/signal_power_0 misc/signal_power_1 misc/signal_power_2 misc/signal_power_3\""
par Scenario.visualizer.ieee80211Visualizer iconColor "\"dark\""
attr enum light,dark
par Scenario.visualizer.ieee80211Visualizer labelFont "\"<default>\""
par Scenario.visualizer.ieee80211Visualizer labelColor "\"black\""
par Scenario.visualizer.ieee80211Visualizer placementHint "\"top\""
par Scenario.visualizer.ieee80211Visualizer placementPriority 0
par Scenario.visualizer.ieee80211Visualizer zIndex 2
par Scenario.visualizer.networkRouteVisualizer typename "\"inet.visualizer.canvas.networklayer.NetworkRouteCanvasVisualizer\""
par Scenario.visualizer.networkRouteVisualizer visualizationTargetModule "\"^.^\""
par Scenario.visualizer.networkRouteVisualizer visualizationSubjectModule "\"^.^\""
par Scenario.visualizer.networkRouteVisualizer tags "\"\""
par Scenario.visualizer.networkRouteVisualizer displayRoutes false
par Scenario.visualizer.networkRouteVisualizer startPathSignal "\"packetReceivedFromUpper\""
par Scenario.visualizer.networkRouteVisualizer extendPathSignal "\"packetReceivedFromLower\""
par Scenario.visualizer.networkRouteVisualizer endPathSignal "\"packetSentToUpper\""
par Scenario.visualizer.networkRouteVisualizer nodeFilter "\"*\""
par Scenario.visualizer.networkRouteVisualizer packetFilter "\"*\""
par Scenario.visualizer.networkRouteVisualizer packetDataFilter "\"*\""
par Scenario.visualizer.networkRouteVisualizer lineColor "\"dark\""
attr enum light,dark
par Scenario.visualizer.networkRouteVisualizer lineStyle "\"solid\""
par Scenario.visualizer.networkRouteVisualizer lineWidth 3
par Scenario.visualizer.networkRouteVisualizer lineSmooth false
par Scenario.visualizer.networkRouteVisualizer lineShift 16
par Scenario.visualizer.networkRouteVisualizer lineShiftMode "\"normal\""
par Scenario.visualizer.networkRouteVisualizer lineContactSpacing 3
par Scenario.visualizer.networkRouteVisualizer lineContactMode "\"rectangular\""
attr enum circular,rectangular
par Scenario.visualizer.networkRouteVisualizer labelFormat "\"%n\""
par Scenario.visualizer.networkRouteVisualizer labelFont "\"<default>, 8px\""
par Scenario.visualizer.networkRouteVisualizer labelColor "\"\""
par Scenario.visualizer.networkRouteVisualizer fadeOutMode "\"realTime\""
attr enum realTime,animationTime,simulationTime
par Scenario.visualizer.networkRouteVisualizer fadeOutTime 1s
attr unit s
par Scenario.visualizer.networkRouteVisualizer fadeOutAnimationSpeed 0
par Scenario.visualizer.networkRouteVisualizer zIndex 3
par Scenario.visualizer.routingTableVisualizer typename "\"inet.visualizer.canvas.networklayer.RoutingTableCanvasVisualizer\""
par Scenario.visualizer.routingTableVisualizer visualizationTargetModule "\"^.^\""
par Scenario.visualizer.routingTableVisualizer visualizationSubjectModule "\"^.^\""
par Scenario.visualizer.routingTableVisualizer tags "\"\""
par Scenario.visualizer.routingTableVisualizer displayRoutingTables false
par Scenario.visualizer.routingTableVisualizer displayRoutesIndividually true
par Scenario.visualizer.routingTableVisualizer displayLabels true
par Scenario.visualizer.routingTableVisualizer destinationFilter "\"*\""
par Scenario.visualizer.routingTableVisualizer nodeFilter "\"*\""
par Scenario.visualizer.routingTableVisualizer lineColor "\"black\""
par Scenario.visualizer.routingTableVisualizer lineStyle "\"solid\""
par Scenario.visualizer.routingTableVisualizer lineWidth 2
par Scenario.visualizer.routingTableVisualizer lineShift 16
par Scenario.visualizer.routingTableVisualizer lineShiftMode "\"normal\""
par Scenario.visualizer.routingTableVisualizer lineContactSpacing 3
par Scenario.visualizer.routingTableVisualizer lineContactMode "\"rectangular\""
attr enum circular,rectangular
par Scenario.visualizer.routingTableVisualizer labelFormat "\"%d/%m -> %g (%n)\""
par Scenario.visualizer.routingTableVisualizer labelFont "\"<default>, 8px\""
par Scenario.visualizer.routingTableVisualizer labelColor "\"black\""
par Scenario.visualizer.routingTableVisualizer zIndex 0
par Scenario.visualizer.transportRouteVisualizer typename "\"inet.visualizer.canvas.transportlayer.TransportRouteCanvasVisualizer\""
par Scenario.visualizer.transportRouteVisualizer visualizationTargetModule "\"^.^\""
par Scenario.visualizer.transportRouteVisualizer visualizationSubjectModule "\"^.^\""
par Scenario.visualizer.transportRouteVisualizer tags "\"\""
par Scenario.visualizer.transportRouteVisualizer displayRoutes false
par Scenario.visualizer.transportRouteVisualizer startPathSignal "\"packetReceivedFromUpper\""
par Scenario.visualizer.transportRouteVisualizer extendPathSignal "\"packetReceivedFromLower\""
par Scenario.visualizer.transportRouteVisualizer endPathSignal "\"packetSentToUpper\""
par Scenario.visualizer.transportRouteVisualizer nodeFilter "\"*\""
par Scenario.visualizer.transportRouteVisualizer packetFilter "\"*\""
par Scenario.visualizer.transportRouteVisualizer packetDataFilter "\"*\""
par Scenario.visualizer.transportRouteVisualizer lineColor "\"dark\""
attr enum light,dark
par Scenario.visualizer.transportRouteVisualizer lineStyle "\"solid\""
par Scenario.visualizer.transportRouteVisualizer lineWidth 3
par Scenario.visualizer.transportRouteVisualizer lineSmooth false
par Scenario.visualizer.transportRouteVisualizer lineShift 16
par Scenario.visualizer.transportRouteVisualizer lineShiftMode "\"normal\""
par Scenario.visualizer.transportRouteVisualizer lineContactSpacing 3
par Scenario.visualizer.transportRouteVisualizer lineContactMode "\"rectangular\""
attr enum circular,rectangular
par Scenario.visualizer.transportRouteVisualizer labelFormat "\"%n\""
par Scenario.visualizer.transportRouteVisualizer labelFont "\"<default>, 8px\""
par Scenario.visualizer.transportRouteVisualizer labelColor "\"\""
par Scenario.visualizer.transportRouteVisualizer fadeOutMode "\"realTime\""
attr enum realTime,animationTime,simulationTime
par Scenario.visualizer.transportRouteVisualizer fadeOutTime 1s
attr unit s
par Scenario.visualizer.transportRouteVisualizer fadeOutAnimationSpeed 0
par Scenario.visualizer.transportRouteVisualizer zIndex 4
par Scenario.visualizer.transportConnectionVisualizer typename "\"inet.visualizer.canvas.transportlayer.TransportConnectionCanvasVisualizer\""
par Scenario.visualizer.transportConnectionVisualizer visualizationTargetModule "\"^.^\""
par Scenario.visualizer.transportConnectionVisualizer visualizationSubjectModule "\"^.^\""
par Scenario.visualizer.transportConnectionVisualizer tags "\"\""
par Scenario.visualizer.transportConnectionVisualizer networkNodeVisualizerModule "\"^.networkNodeVisualizer\""
par Scenario.visualizer.transportConnectionVisualizer displayTransportConnections false
par Scenario.visualizer.transportConnectionVisualizer sourceNodeFilter "\"*\""
par Scenario.visualizer.transportConnectionVisualizer sourcePortFilter "\"*\""
par Scenario.visualizer.transportConnectionVisualizer destinationNodeFilter "\"*\""
par Scenario.visualizer.transportConnectionVisualizer destinationPortFilter "\"*\""
par Scenario.visualizer.transportConnectionVisualizer icon "\"misc/marker_s\""
par Scenario.visualizer.transportConnectionVisualizer iconColor "\"dark\""
attr enum light,dark
par Scenario.visualizer.transportConnectionVisualizer labelFont "\"<default>\""
par Scenario.visualizer.transportConnectionVisualizer labelColor "\"black\""
par Scenario.visualizer.transportConnectionVisualizer placementHint "\"top\""
par Scenario.visualizer.transportConnectionVisualizer placementPriority 0
par Scenario.visualizer.transportConnectionVisualizer zIndex 4
par Scenario.visualizer typename "\"inet.visualizer.canvas.integrated.IntegratedCanvasVisualizer\""
par Scenario.physicalEnvironment typename "\"inet.environment.common.PhysicalEnvironment\""
par Scenario.physicalEnvironment coordinateSystemModule "\"\""
par Scenario.physicalEnvironment temperature 293K
attr unit K
par Scenario.physicalEnvironment spaceMinX "nan m"
attr unit m
par Scenario.physicalEnvironment spaceMinY "nan m"
attr unit m
par Scenario.physicalEnvironment spaceMinZ "nan m"
attr unit m
par Scenario.physicalEnvironment spaceMaxX "nan m"
attr unit m
par Scenario.physicalEnvironment spaceMaxY "nan m"
attr unit m
par Scenario.physicalEnvironment spaceMaxZ "nan m"
attr unit m
par Scenario.physicalEnvironment config "<config/> at content:1"
par Scenario.node0.radioIn[0].channel typename "\"ned.IdealChannel\""
par Scenario.node0.mobility typename "\"inet.mobility.static.StationaryMobility\""
par Scenario.node0.mobility subjectModule "\"^\""
par Scenario.node0.mobility coordinateSystemModule "\"\""
par Scenario.node0.mobility displayStringTextFormat "\"p: %p\\nv: %v\""
par Scenario.node0.mobility updateDisplayString true
par Scenario.node0.mobility constraintAreaMinX "-inf m"
attr unit m
par Scenario.node0.mobility constraintAreaMinY "-inf m"
attr unit m
par Scenario.node0.mobility constraintAreaMinZ "-inf m"
attr unit m
par Scenario.node0.mobility constraintAreaMaxX "inf m"
attr unit m
par Scenario.node0.mobility constraintAreaMaxY "inf m"
attr unit m
par Scenario.node0.mobility constraintAreaMaxZ "inf m"
attr unit m
par Scenario.node0.mobility initialX "nan m"
attr unit m
par Scenario.node0.mobility initialY "nan m"
attr unit m
par Scenario.node0.mobility initialZ 0m
attr unit m
par Scenario.node0.mobility initialLatitude "nan deg"
attr unit deg
par Scenario.node0.mobility initialLongitude "nan deg"
attr unit deg
par Scenario.node0.mobility initialAltitude 0m
attr unit m
par Scenario.node0.mobility initialHeading 0deg
attr unit deg
par Scenario.node0.mobility initialElevation 0deg
attr unit deg
par Scenario.node0.mobility initialBank 0deg
attr unit deg
par Scenario.node0.mobility initFromDisplayString true
par Scenario.node0.mobility updateFromDisplayString true
par Scenario.node0.interfaceTable typename "\"inet.networklayer.common.InterfaceTable\""
par Scenario.node0.interfaceTable displayAddresses false
par Scenario.node0.li typename "\"inet.common.MessageDispatcher\""
par Scenario.node0.li displayStringTextFormat "\"processed %p pk (%l)\""
par Scenario.node0.lo[0].upperLayerIn.channel typename "\"ned.IdealChannel\""
par Scenario.node0.lo[0].lo.upperLayerOut.channel typename "\"ned.IdealChannel\""
par Scenario.node0.lo[0].lo typename "\"inet.linklayer.loopback.Loopback\""
par Scenario.node0.lo[0].lo interfaceTableModule "\"Scenario.node0.interfaceTable\""
par Scenario.node0.lo[0].lo mtu 4470B
attr unit B
scalar Scenario.node0.lo[0].lo rcvdPkFromHl:count 0
attr interpolationmode none
attr source packetReceivedFromUpper
attr title "packets received from higher layer, count"
scalar Scenario.node0.lo[0].lo rcvdPkFromHl:sum(packetBytes) 0
attr interpolationmode none
attr source packetReceivedFromUpper
attr title "packets received from higher layer, sum(packetBytes)"
scalar Scenario.node0.lo[0].lo passedUpPk:count 0
attr interpolationmode none
attr source packetSentToUpper
attr title "packets passed to higher layer, count"
scalar Scenario.node0.lo[0].lo passedUpPk:sum(packetBytes) 0
attr interpolationmode none
attr source packetSentToUpper
attr title "packets passed to higher layer, sum(packetBytes)"
par Scenario.node0.lo[0] typename "\"inet.linklayer.loopback.LoopbackInterface\""
par Scenario.node0.lo[0] displayStringTextFormat "\"%a (%i)\\n%m\""
par Scenario.node0.lo[0] recordPcap false
par Scenario.node0.lo[0] numPcapRecorders 0
par Scenario.node0.lo[0] interfaceTableModule "\"Scenario.node0.interfaceTable\""
par Scenario.node0.wlan[0].radioIn.channel typename "\"ned.IdealChannel\""
par Scenario.node0.wlan[0].llc.upperLayerOut.channel typename "\"ned.IdealChannel\""
par Scenario.node0.wlan[0].upperLayerIn.channel typename "\"ned.IdealChannel\""
par Scenario.node0.wlan[0].mib typename "\"inet.linklayer.ieee80211.mib.Ieee80211Mib\""
par Scenario.node0.wlan[0].llc typename "\"inet.linklayer.ieee80211.llc.Ieee80211LlcEpd\""
par Scenario.node0.wlan[0].mgmt typename "\"inet.linklayer.ieee80211.mgmt.Ieee80211MgmtAdhoc\""
par Scenario.node0.wlan[0].mgmt mibModule "\"Scenario.node0.wlan[0].mib\""
par Scenario.node0.wlan[0].mgmt macModule "\"Scenario.node0.wlan[0].mac\""
par Scenario.node0.wlan[0].mgmt interfaceTableModule "\"Scenario.node0.interfaceTable\""
par Scenario.node0.wlan[0].mac.dcf.channelAccess.pendingQueue typename "\"inet.linklayer.ieee80211.mac.queue.PendingQueue\""
par Scenario.node0.wlan[0].mac.dcf.channelAccess.pendingQueue displayStringTextFormat "\"contains %p pk (%l) pushed %u\\npulled %o removed %r dropped %d\""
par Scenario.node0.wlan[0].mac.dcf.channelAccess.pendingQueue packetCapacity 100
par Scenario.node0.wlan[0].mac.dcf.channelAccess.pendingQueue dataCapacity -1b
attr unit b
par Scenario.node0.wlan[0].mac.dcf.channelAccess.pendingQueue dropperClass "\"inet::queueing::PacketAtCollectionEndDropper\""
par Scenario.node0.wlan[0].mac.dcf.channelAccess.pendingQueue comparatorClass "\"inet::ieee80211::MgmtOverDataComparator\""
par Scenario.node0.wlan[0].mac.dcf.channelAccess.pendingQueue bufferModule "\"\""
scalar Scenario.node0.wlan[0].mac.dcf.channelAccess.pendingQueue packetPulled:count 0
attr interpolationmode none
attr title "packet pulled, count"
scalar Scenario.node0.wlan[0].mac.dcf.channelAccess.pendingQueue packetPulled:sum(packetBytes) 0
attr interpolationmode none
attr title "packet pulled, sum(packetBytes)"
statistic Scenario.node0.wlan[0].mac.dcf.channelAccess.pendingQueue queueingTime:histogram
field count 0
field mean -nan
field stddev -nan
field min -nan
field max -nan
field sum 0
field sqrsum 0
attr interpolationmode none
attr source queueingTime(packetPulled)
attr title "queueing times, histogram"
attr unit s
bin	-inf	0
bin	0	0
bin	1	0
scalar Scenario.node0.wlan[0].mac.dcf.channelAccess.pendingQueue queueLength:max -nan
attr autoWarmupFilter false
attr interpolationmode sample-hold
attr source "warmup(count(packetPushed) - count(packetPulled) - count(packetRemoved) - count(packetDropped))"
attr title "queue length, max"
attr type int
scalar Scenario.node0.wlan[0].mac.dcf.channelAccess.pendingQueue queueLength:timeavg -nan
attr autoWarmupFilter false
attr interpolationmode sample-hold
attr source "warmup(count(packetPushed) - count(packetPulled) - count(packetRemoved) - count(packetDropped))"
attr title "queue length, timeavg"
attr type int
scalar Scenario.node0.wlan[0].mac.dcf.channelAccess.pendingQueue packetPushed:count 0
attr interpolationmode none
attr title "packet pushed, count"
scalar Scenario.node0.wlan[0].mac.dcf.channelAccess.pendingQueue packetPushed:sum(packetBytes) 0
attr interpolationmode none
attr title "packet pushed, sum(packetBytes)"
scalar Scenario.node0.wlan[0].mac.dcf.channelAccess.pendingQueue packetDropQueueOverflow:count 0
attr interpolationmode none
attr source packetDropReasonIsQueueOverflow(packetDropped)
attr title "packet drops: queue overflow, count"
scalar Scenario.node0.wlan[0].mac.dcf.channelAccess.pendingQueue packetDropQueueOverflow:sum(packetBytes) 0
attr interpolationmode none
attr source packetDropReasonIsQueueOverflow(packetDropped)
attr title "packet drops: queue overflow, sum(packetBytes)"
scalar Scenario.node0.wlan[0].mac.dcf.channelAccess.pendingQueue packetRemoved:count 0
attr interpolationmode none
attr title "packets removed, count"
scalar Scenario.node0.wlan[0].mac.dcf.channelAccess.pendingQueue packetRemoved:sum(packetBytes) 0
attr interpolationmode none
attr title "packets removed, sum(packetBytes)"
par Scenario.node0.wlan[0].mac.dcf.channelAccess.inProgressFrames typename "\"inet.linklayer.ieee80211.mac.queue.InProgressFrames\""
par Scenario.node0.wlan[0].mac.dcf.channelAccess.inProgressFrames pendingQueueModule "\"^.pendingQueue\""
par Scenario.node0.wlan[0].mac.dcf.channelAccess.inProgressFrames originatorMacDataServiceModule "\"^.^.originatorMacDataService\""
par Scenario.node0.wlan[0].mac.dcf.channelAccess.inProgressFrames ackHandlerModule "\"^.^.ackHandler\""
statistic Scenario.node0.wlan[0].mac.dcf.channelAccess.inProgressFrames queueingTime:histogram
field count 0
field mean -nan
field stddev -nan
field min -nan
field max -nan
field sum 0
field sqrsum 0
attr interpolationmode none
attr source queueingTime(packetDequeued)
attr title "queueing times, histogram"
bin	-inf	0
bin	0	0
bin	1	0
scalar Scenario.node0.wlan[0].mac.dcf.channelAccess.inProgressFrames queueLength:max -nan
attr autoWarmupFilter false
attr interpolationmode sample-hold
attr source "warmup(count(packetEnqueued) - count(packetDequeued))"
attr title "queue length, max"
scalar Scenario.node0.wlan[0].mac.dcf.channelAccess.inProgressFrames queueLength:timeavg -nan
attr autoWarmupFilter false
attr interpolationmode sample-hold
attr source "warmup(count(packetEnqueued) - count(packetDequeued))"
attr title "queue length, timeavg"
par Scenario.node0.wlan[0].mac.dcf.channelAccess.contention typename "\"inet.linklayer.ieee80211.mac.contention.Contention\""
par Scenario.node0.wlan[0].mac.dcf.channelAccess.contention initialChannelBusy true
par Scenario.node0.wlan[0].mac.dcf.channelAccess.contention backoffOptimization true
scalar Scenario.node0.wlan[0].mac.dcf.channelAccess.contention channelAccessGranted:count 0
attr title "channel access granted, count"
scalar Scenario.node0.wlan[0].mac.dcf.channelAccess.contention stateChanged:count 20
attr enum IDLE,DEFER,IFS_AND_BACKOFF
attr interpolationmode none
attr title "contention state changed, count"
attr type enum
par Scenario.node0.wlan[0].mac.dcf.channelAccess typename "\"inet.linklayer.ieee80211.mac.channelaccess.Dcaf\""
par Scenario.node0.wlan[0].mac.dcf.channelAccess difsn -1
par Scenario.node0.wlan[0].mac.dcf.channelAccess cwMin -1
par Scenario.node0.wlan[0].mac.dcf.channelAccess cwMax -1
par Scenario.node0.wlan[0].mac.dcf.channelAccess rxModule "\"^.^.rx\""
scalar Scenario.node0.wlan[0].mac.dcf.channelAccess channelOwnershipChanged:count 0
attr interpolationmode sample-hold
attr title "channel ownership, count"
par Scenario.node0.wlan[0].mac.dcf.originatorMacDataService.fragmentationPolicy typename "\"inet.linklayer.ieee80211.mac.fragmentation.BasicFragmentationPolicy\""
par Scenario.node0.wlan[0].mac.dcf.originatorMacDataService.fragmentationPolicy fragmentationThreshold 1500B
attr unit B
par Scenario.node0.wlan[0].mac.dcf.originatorMacDataService typename "\"inet.linklayer.ieee80211.mac.originator.OriginatorMacDataService\""
scalar Scenario.node0.wlan[0].mac.dcf.originatorMacDataService packetAggregated:count 0
attr title "packets aggregated, count"
scalar Scenario.node0.wlan[0].mac.dcf.originatorMacDataService packetFragmented:count 0
attr title "packets fragmented, count"
par Scenario.node0.wlan[0].mac.dcf.recipientMacDataService typename "\"inet.linklayer.ieee80211.mac.recipient.RecipientMacDataService\""
scalar Scenario.node0.wlan[0].mac.dcf.recipientMacDataService packetDeaggregated:count 0
attr title "packets deaggregated, count"
scalar Scenario.node0.wlan[0].mac.dcf.recipientMacDataService packetDefragmented:count 4
attr title "packets defragmented, count"
scalar Scenario.node0.wlan[0].mac.dcf.recipientMacDataService packetDropDuplicateDetected:count 0
attr interpolationmode none
attr source packetDropReasonIsDuplicateDetected(packetDropped)
attr title "packet drops: duplicate detected, count"
scalar Scenario.node0.wlan[0].mac.dcf.recipientMacDataService packetDropDuplicateDetected:sum(packetBytes) 0
attr interpolationmode none
attr source packetDropReasonIsDuplicateDetected(packetDropped)
attr title "packet drops: duplicate detected, sum(packetBytes)"
par Scenario.node0.wlan[0].mac.dcf.rateSelection typename "\"inet.linklayer.ieee80211.mac.rateselection.RateSelection\""
par Scenario.node0.wlan[0].mac.dcf.rateSelection rateControlModule "\"^.rateControl\""
par Scenario.node0.wlan[0].mac.dcf.rateSelection multicastFrameBitrate -1bps
attr unit bps
par Scenario.node0.wlan[0].mac.dcf.rateSelection responseAckFrameBitrate -1bps
attr unit bps
par Scenario.node0.wlan[0].mac.dcf.rateSelection responseCtsFrameBitrate -1bps
attr unit bps
par Scenario.node0.wlan[0].mac.dcf.rateSelection dataFrameBitrate -1bps
attr unit bps
par Scenario.node0.wlan[0].mac.dcf.rateSelection dataFrameBandwidth "nan Hz"
attr unit Hz
par Scenario.node0.wlan[0].mac.dcf.rateSelection dataFrameNumSpatialStreams -1
par Scenario.node0.wlan[0].mac.dcf.rateSelection mgmtFrameBitrate -1bps
attr unit bps
par Scenario.node0.wlan[0].mac.dcf.rateSelection controlFrameBitrate -1bps
attr unit bps
par Scenario.node0.wlan[0].mac.dcf.recoveryProcedure typename "\"inet.linklayer.ieee80211.mac.originator.NonQosRecoveryProcedure\""
par Scenario.node0.wlan[0].mac.dcf.recoveryProcedure cwCalculatorModule "\"^.channelAccess\""
par Scenario.node0.wlan[0].mac.dcf.recoveryProcedure rtsPolicyModule "\"^.rtsPolicy\""
par Scenario.node0.wlan[0].mac.dcf.recoveryProcedure shortRetryLimit 7
par Scenario.node0.wlan[0].mac.dcf.recoveryProcedure longRetryLimit 4
scalar Scenario.node0.wlan[0].mac.dcf.recoveryProcedure retryLimitReached:count 0
attr title "retry limit reached, count"
par Scenario.node0.wlan[0].mac.dcf.originatorProtectionMechanism typename "\"inet.linklayer.ieee80211.mac.protectionmechanism.OriginatorProtectionMechanism\""
par Scenario.node0.wlan[0].mac.dcf.originatorProtectionMechanism rateSelectionModule "\"^.rateSelection\""
par Scenario.node0.wlan[0].mac.dcf.ackHandler typename "\"inet.linklayer.ieee80211.mac.originator.AckHandler\""
par Scenario.node0.wlan[0].mac.dcf.originatorAckPolicy typename "\"inet.linklayer.ieee80211.mac.originator.OriginatorAckPolicy\""
par Scenario.node0.wlan[0].mac.dcf.originatorAckPolicy rateSelectionModule "\"^.rateSelection\""
par Scenario.node0.wlan[0].mac.dcf.originatorAckPolicy ackTimeout -1s
attr unit s
par Scenario.node0.wlan[0].mac.dcf.recipientAckPolicy typename "\"inet.linklayer.ieee80211.mac.recipient.RecipientAckPolicy\""
par Scenario.node0.wlan[0].mac.dcf.recipientAckPolicy rateSelectionModule "\"^.rateSelection\""
par Scenario.node0.wlan[0].mac.dcf.rtsPolicy typename "\"inet.linklayer.ieee80211.mac.originator.RtsPolicy\""
par Scenario.node0.wlan[0].mac.dcf.rtsPolicy rateSelectionModule "\"^.rateSelection\""
par Scenario.node0.wlan[0].mac.dcf.rtsPolicy ctsTimeout -1s
attr unit s
par Scenario.node0.wlan[0].mac.dcf.rtsPolicy rtsThreshold 2346B
attr unit B
par Scenario.node0.wlan[0].mac.dcf.ctsPolicy typename "\"inet.linklayer.ieee80211.mac.recipient.CtsPolicy\""
par Scenario.node0.wlan[0].mac.dcf.ctsPolicy rxModule "\"^.^.rx\""
par Scenario.node0.wlan[0].mac.dcf.ctsPolicy rateSelectionModule "\"^.rateSelection\""
par Scenario.node0.wlan[0].mac.dcf typename "\"inet.linklayer.ieee80211.mac.coordinationfunction.Dcf\""
par Scenario.node0.wlan[0].mac.dcf rxModule "\"^.rx\""
par Scenario.node0.wlan[0].mac.dcf txModule "\"^.tx\""
scalar Scenario.node0.wlan[0].mac.dcf frameSequenceFinished:count 0
attr title "finished frame sequences, count"
statistic Scenario.node0.wlan[0].mac.dcf frameSequenceDuration:histogram
field count 0
field mean -nan
field stddev -nan
field min -nan
field max -nan
field sum 0
field sqrsum 0
attr source frameSequenceDuration(frameSequenceFinished)
attr title "frame sequence durations, histogram"
bin	-inf	0
bin	0	0
bin	1	0
statistic Scenario.node0.wlan[0].mac.dcf frameSequenceNumPackets:histogram
field count 0
field mean -nan
field stddev -nan
field min -nan
field max -nan
field sum 0
field sqrsum 0
attr source frameSequenceNumPackets(frameSequenceFinished)
attr title "frame sequences: number of packets, histogram"
bin	-inf	0
bin	0	0
bin	1	0
scalar Scenario.node0.wlan[0].mac.dcf packetReceivedFromPeer:count 4
attr interpolationmode none
attr title "packets received, count"
scalar Scenario.node0.wlan[0].mac.dcf packetReceivedFromPeer:sum(packetBytes) 2232
attr interpolationmode none
attr title "packets received, sum(packetBytes)"
scalar Scenario.node0.wlan[0].mac.dcf packetReceivedFromPeerUnicast:count 0
attr interpolationmode none
attr source ieee80211Unicast(packetReceivedFromPeer)
attr title "packets received: unicast, count"
scalar Scenario.node0.wlan[0].mac.dcf packetReceivedFromPeerUnicast:sum(packetBytes) 0
attr interpolationmode none
attr source ieee80211Unicast(packetReceivedFromPeer)
attr title "packets received: unicast, sum(packetBytes)"
scalar Scenario.node0.wlan[0].mac.dcf packetReceivedFromPeerMulticast:count 4
attr interpolationmode none
attr source ieee80211Multicast(packetReceivedFromPeer)
attr title "packets received: multicast, count"
scalar Scenario.node0.wlan[0].mac.dcf packetReceivedFromPeerMulticast:sum(packetBytes) 2232
attr interpolationmode none
attr source ieee80211Multicast(packetReceivedFromPeer)
attr title "packets received: multicast, sum(packetBytes)"
scalar Scenario.node0.wlan[0].mac.dcf packetReceivedFromPeerBroadcast:count 0
attr interpolationmode none
attr source ieee80211Broadcast(packetReceivedFromPeer)
attr title "packets received: broadcast, count"
scalar Scenario.node0.wlan[0].mac.dcf packetReceivedFromPeerBroadcast:sum(packetBytes) 0
attr interpolationmode none
attr source ieee80211Broadcast(packetReceivedFromPeer)
attr title "packets received: broadcast, sum(packetBytes)"
scalar Scenario.node0.wlan[0].mac.dcf packetReceivedFromPeerWithRetry:count 0
attr interpolationmode none
attr source ieee80211Retry(packetReceivedFromPeer)
attr title "packets received: with retry, count"
scalar Scenario.node0.wlan[0].mac.dcf packetReceivedFromPeerWithRetry:sum(packetBytes) 0
attr interpolationmode none
attr source ieee80211Retry(packetReceivedFromPeer)
attr title "packets received: with retry, sum(packetBytes)"
scalar Scenario.node0.wlan[0].mac.dcf packetReceivedFromPeerWithoutRetry:count 4
attr interpolationmode none
attr source ieee80211NotRetry(packetReceivedFromPeer)
attr title "packets received: without retry, count"
scalar Scenario.node0.wlan[0].mac.dcf packetReceivedFromPeerWithoutRetry:sum(packetBytes) 2232
attr interpolationmode none
attr source ieee80211NotRetry(packetReceivedFromPeer)
attr title "packets received: without retry, sum(packetBytes)"
scalar Scenario.node0.wlan[0].mac.dcf packetSentToPeer:count 0
attr interpolationmode none
attr title "packets sent, count"
scalar Scenario.node0.wlan[0].mac.dcf packetSentToPeer:sum(packetBytes) 0
attr interpolationmode none
attr title "packets sent, sum(packetBytes)"
scalar Scenario.node0.wlan[0].mac.dcf packetSentToPeerUnicast:count 0
attr interpolationmode none
attr source ieee80211Unicast(packetSentToPeer)
attr title "packets sent: unicast, count"
scalar Scenario.node0.wlan[0].mac.dcf packetSentToPeerUnicast:sum(packetBytes) 0
attr interpolationmode none
attr source ieee80211Unicast(packetSentToPeer)
attr title "packets sent: unicast, sum(packetBytes)"
scalar Scenario.node0.wlan[0].mac.dcf packetSentToPeerMulticast:count 0
attr interpolationmode none
attr source ieee80211Multicast(packetSentToPeer)
attr title "packets sent: multicast, count"
scalar Scenario.node0.wlan[0].mac.dcf packetSentToPeerMulticast:sum(packetBytes) 0
attr interpolationmode none
attr source ieee80211Multicast(packetSentToPeer)
attr title "packets sent: multicast, sum(packetBytes)"
scalar Scenario.node0.wlan[0].mac.dcf packetSentToPeerBroadcast:count 0
attr interpolationmode none
attr source ieee80211Broadcast(packetSentToPeer)
attr title "packets sent: broadcast , count"
scalar Scenario.node0.wlan[0].mac.dcf packetSentToPeerBroadcast:sum(packetBytes) 0
attr interpolationmode none
attr source ieee80211Broadcast(packetSentToPeer)
attr title "packets sent: broadcast , sum(packetBytes)"
scalar Scenario.node0.wlan[0].mac.dcf packetSentToPeerWithRetry:count 0
attr interpolationmode none
attr source ieee80211Retry(packetSentToPeer)
attr title "packets sent: with retry, count"
scalar Scenario.node0.wlan[0].mac.dcf packetSentToPeerWithRetry:sum(packetBytes) 0
attr interpolationmode none
attr source ieee80211Retry(packetSentToPeer)
attr title "packets sent: with retry, sum(packetBytes)"
scalar Scenario.node0.wlan[0].mac.dcf packetSentToPeerWithoutRetry:count 0
attr interpolationmode none
attr source ieee80211NotRetry(packetSentToPeer)
attr title "packets sent: without retry, count"
scalar Scenario.node0.wlan[0].mac.dcf packetSentToPeerWithoutRetry:sum(packetBytes) 0
attr interpolationmode none
attr source ieee80211NotRetry(packetSentToPeer)
attr title "packets sent: without retry, sum(packetBytes)"
scalar Scenario.node0.wlan[0].mac.dcf packetDrop:count 0
attr interpolationmode none
attr source packetDropped
attr title "packet drops, count"
scalar Scenario.node0.wlan[0].mac.dcf packetDrop:sum(packetBytes) 0
attr interpolationmode none
attr source packetDropped
attr title "packet drops, sum(packetBytes)"
scalar Scenario.node0.wlan[0].mac.dcf packetDropNotAddressedToUs:count 0
attr interpolationmode none
attr source packetDropReasonIsNotAddressedToUs(packetDropped)
attr title "packet drops: not addressed to us, count"
scalar Scenario.node0.wlan[0].mac.dcf packetDropNotAddressedToUs:sum(packetBytes) 0
attr interpolationmode none
attr source packetDropReasonIsNotAddressedToUs(packetDropped)
attr title "packet drops: not addressed to us, sum(packetBytes)"
scalar Scenario.node0.wlan[0].mac.dcf packetDropQueueOverflow:count 0
attr interpolationmode none
attr source packetDropReasonIsQueueOverflow(packetDropped)
attr title "packet drops: queue overflow, count"
scalar Scenario.node0.wlan[0].mac.dcf packetDropQueueOverflow:sum(packetBytes) 0
attr interpolationmode none
attr source packetDropReasonIsQueueOverflow(packetDropped)
attr title "packet drops: queue overflow, sum(packetBytes)"
scalar Scenario.node0.wlan[0].mac.dcf packetDropRetryLimitReached:count 0
attr interpolationmode none
attr source packetDropReasonIsRetryLimitReached(packetDropped)
attr title "packet drops: retry limit reached, count"
scalar Scenario.node0.wlan[0].mac.dcf packetDropRetryLimitReached:sum(packetBytes) 0
attr interpolationmode none
attr source packetDropReasonIsRetryLimitReached(packetDropped)
attr title "packet drops: retry limit reached, sum(packetBytes)"
scalar Scenario.node0.wlan[0].mac.dcf linkBroken:count 0
attr interpolationmode none
attr title "link breaks, count"
par Scenario.node0.wlan[0].mac.ds typename "\"inet.linklayer.ieee80211.mac.Ds\""
par Scenario.node0.wlan[0].mac.ds mibModule "\"Scenario.node0.wlan[0].mib\""
par Scenario.node0.wlan[0].mac.rx typename "\"inet.linklayer.ieee80211.mac.Rx\""
par Scenario.node0.wlan[0].mac.tx typename "\"inet.linklayer.ieee80211.mac.Tx\""
par Scenario.node0.wlan[0].mac.tx rxModule "\"^.rx\""
par Scenario.node0.wlan[0].mac typename "\"inet.linklayer.ieee80211.mac.Ieee80211Mac\""
par Scenario.node0.wlan[0].mac interfaceTableModule "\"Scenario.node0.interfaceTable\""
par Scenario.node0.wlan[0].mac mibModule "\"Scenario.node0.wlan[0].mib\""
par Scenario.node0.wlan[0].mac modeSet "\"p\""
attr enum a,b,g(erp),g(mixed),n(mixed-2.4Ghz),p,ac
par Scenario.node0.wlan[0].mac fcsMode "\"declared\""
attr enum declared,computed
par Scenario.node0.wlan[0].mac initialRadioMode "\"receiver\""
attr enum off,sleep,receiver,transmitter,transceiver
par Scenario.node0.wlan[0].mac mtu 2304B
attr unit B
par Scenario.node0.wlan[0].mac qosStation false
scalar Scenario.node0.wlan[0].mac packetReceivedFromLower:count 4
attr interpolationmode none
attr title "packets received from lower layer, count"
scalar Scenario.node0.wlan[0].mac packetReceivedFromLower:sum(packetBytes) 2232
attr interpolationmode none
attr title "packets received from lower layer, sum(packetBytes)"
scalar Scenario.node0.wlan[0].mac packetSentToLower:count 0
attr interpolationmode none
attr title "packets sent to lower layer, count"
scalar Scenario.node0.wlan[0].mac packetSentToLower:sum(packetBytes) 0
attr interpolationmode none
attr title "packets sent to lower layer, sum(packetBytes)"
scalar Scenario.node0.wlan[0].mac packetReceivedFromUpper:count 0
attr interpolationmode none
attr title "packets received from upper layer, count"
scalar Scenario.node0.wlan[0].mac packetReceivedFromUpper:sum(packetBytes) 0
attr interpolationmode none
attr title "packets received from upper layer, sum(packetBytes)"
scalar Scenario.node0.wlan[0].mac packetSentToUpper:count 4
attr interpolationmode none
attr title "packets sent to upper layer, count"
scalar Scenario.node0.wlan[0].mac packetSentToUpper:sum(packetBytes) 2120
attr interpolationmode none
attr title "packets sent to upper layer, sum(packetBytes)"
scalar Scenario.node0.wlan[0].mac packetDrop:count 0
attr interpolationmode none
attr source packetDropped
attr title "packet drops, count"
scalar Scenario.node0.wlan[0].mac packetDrop:sum(packetBytes) 0
attr interpolationmode none
attr source packetDropped
attr title "packet drops, sum(packetBytes)"
scalar Scenario.node0.wlan[0].mac packetDropIncorrectlyReceived:count 0
attr interpolationmode none
attr source packetDropReasonIsIncorrectlyReceived(packetDropped)
attr title "packet drops: incorrectly received, count"
scalar Scenario.node0.wlan[0].mac packetDropIncorrectlyReceived:sum(packetBytes) 0
attr interpolationmode none
attr source packetDropReasonIsIncorrectlyReceived(packetDropped)
attr title "packet drops: incorrectly received, sum(packetBytes)"
scalar Scenario.node0.wlan[0].mac packetDropNotAddressedToUs:count 0
attr interpolationmode none
attr source packetDropReasonIsNotAddressedToUs(packetDropped)
attr title "packet drops: not addressed to us, count"
scalar Scenario.node0.wlan[0].mac packetDropNotAddressedToUs:sum(packetBytes) 0
attr interpolationmode none
attr source packetDropReasonIsNotAddressedToUs(packetDropped)
attr title "packet drops: not addressed to us, sum(packetBytes)"
scalar Scenario.node0.wlan[0].mac packetDropQueueOverflow:count 0
attr interpolationmode none
attr source packetDropReasonIsQueueOverflow(packetDropped)
attr title "packet drops: queue overflow, count"
scalar Scenario.node0.wlan[0].mac packetDropQueueOverflow:sum(packetBytes) 0
attr interpolationmode none
attr source packetDropReasonIsQueueOverflow(packetDropped)
attr title "packet drops: queue overflow, sum(packetBytes)"
scalar Scenario.node0.wlan[0].mac packetDropRetryLimitReached:count 0
attr interpolationmode none
attr source packetDropReasonIsRetryLimitReached(packetDropped)
attr title "packet drops: retry limit reached, count"
scalar Scenario.node0.wlan[0].mac packetDropRetryLimitReached:sum(packetBytes) 0
attr interpolationmode none
attr source packetDropReasonIsRetryLimitReached(packetDropped)
attr title "packet drops: retry limit reached, sum(packetBytes)"
scalar Scenario.node0.wlan[0].mac packetDropDuplicateDetected:count 0
attr interpolationmode none
attr source packetDropReasonIsDuplicateDetected(packetDropped)
attr title "packet drops: duplicate detected, count"
scalar Scenario.node0.wlan[0].mac packetDropDuplicateDetected:sum(packetBytes) 0
attr interpolationmode none
attr source packetDropReasonIsDuplicateDetected(packetDropped)
attr title "packet drops: duplicate detected, sum(packetBytes)"
scalar Scenario.node0.wlan[0].mac packetDropOther:count 0
attr interpolationmode none
attr source packetDropReasonIsOther(packetDropped)
attr title "packet drops: other, count"
scalar Scenario.node0.wlan[0].mac packetDropOther:sum(packetBytes) 0
attr interpolationmode none
attr source packetDropReasonIsOther(packetDropped)
attr title "packet drops: other, sum(packetBytes)"
scalar Scenario.node0.wlan[0].mac linkBroken:count 0
attr interpolationmode none
attr title "link breaks, count"
par Scenario.node0.wlan[0].radio.antenna.mobility typename "\"inet.mobility.single.AttachedMobility\""
par Scenario.node0.wlan[0].radio.antenna.mobility subjectModule "\"\""
par Scenario.node0.wlan[0].radio.antenna.mobility coordinateSystemModule "\"\""
par Scenario.node0.wlan[0].radio.antenna.mobility displayStringTextFormat "\"p: %p\\nv: %v\""
par Scenario.node0.wlan[0].radio.antenna.mobility updateDisplayString true
par Scenario.node0.wlan[0].radio.antenna.mobility constraintAreaMinX 0m
attr unit m
par Scenario.node0.wlan[0].radio.antenna.mobility constraintAreaMinY 0m
attr unit m
par Scenario.node0.wlan[0].radio.antenna.mobility constraintAreaMinZ 0m
attr unit m
par Scenario.node0.wlan[0].radio.antenna.mobility constraintAreaMaxX 0m
attr unit m
par Scenario.node0.wlan[0].radio.antenna.mobility constraintAreaMaxY 0m
attr unit m
par Scenario.node0.wlan[0].radio.antenna.mobility constraintAreaMaxZ 0m
attr unit m
par Scenario.node0.wlan[0].radio.antenna.mobility mobilityModule "\"^.^.^.^.mobility\""
par Scenario.node0.wlan[0].radio.antenna.mobility offsetX -2.5m
attr unit m
par Scenario.node0.wlan[0].radio.antenna.mobility offsetY 0m
attr unit m
par Scenario.node0.wlan[0].radio.antenna.mobility offsetZ 1.5m
attr unit m
par Scenario.node0.wlan[0].radio.antenna.mobility offsetHeading 0deg
attr unit deg
par Scenario.node0.wlan[0].radio.antenna.mobility offsetElevation 0deg
attr unit deg
par Scenario.node0.wlan[0].radio.antenna.mobility offsetBank 0deg
attr unit deg
par Scenario.node0.wlan[0].radio.antenna typename "\"inet.physicallayer.wireless.common.antenna.IsotropicAntenna\""
par Scenario.node0.wlan[0].radio.antenna mobilityModule "\"^.^.^.mobility\""
par Scenario.node0.wlan[0].radio.antenna numAntennas 1
par Scenario.node0.wlan[0].radio.transmitter typename "\"inet.physicallayer.wireless.ieee80211.packetlevel.Ieee80211DimensionalTransmitter\""
par Scenario.node0.wlan[0].radio.transmitter preambleDuration "nan s"
attr unit s
par Scenario.node0.wlan[0].radio.transmitter headerLength 192b
attr unit b
par Scenario.node0.wlan[0].radio.transmitter bitrate -1bps
attr unit bps
par Scenario.node0.wlan[0].radio.transmitter power 0.02W
attr unit W
par Scenario.node0.wlan[0].radio.transmitter centerFrequency 2.412e+09Hz
attr unit Hz
par Scenario.node0.wlan[0].radio.transmitter bandwidth 1e+07Hz
attr unit Hz
par Scenario.node0.wlan[0].radio.transmitter modulation "\"BPSK\""
par Scenario.node0.wlan[0].radio.transmitter gainFunctionCacheLimit 0
par Scenario.node0.wlan[0].radio.transmitter timeGains "\"left s 0dB either e 0dB right\""
par Scenario.node0.wlan[0].radio.transmitter timeGainsNormalization "\"\""
attr enum ,maximum,integral
par Scenario.node0.wlan[0].radio.transmitter frequencyGains "\"left s 0dB either e 0dB right\""
par Scenario.node0.wlan[0].radio.transmitter frequencyGainsNormalization "\"integral\""
attr enum ,maximum,integral
par Scenario.node0.wlan[0].radio.transmitter opMode "\"p\""
attr enum a,b,g(erp),g(mixed),n(mixed-2.4Ghz),p,ac
par Scenario.node0.wlan[0].radio.transmitter bandName "\"5.9 GHz\""
attr enum "2.4 GHz,5 GHz,5 GHz (20 MHz),5 GHz (40 MHz),5 GHz (80 MHz),5 GHz (160 MHz),5.9 GHz"
par Scenario.node0.wlan[0].radio.transmitter channelNumber 3
par Scenario.node0.wlan[0].radio.receiver.errorModel typename "\"inet.physicallayer.wireless.ieee80211.packetlevel.errormodel.Ieee80211NistErrorModel\""
par Scenario.node0.wlan[0].radio.receiver.errorModel corruptionMode "\"packet\""
attr enum packet,chunk,byte,bit
par Scenario.node0.wlan[0].radio.receiver.errorModel snirMode "\"min\""
attr unit min,mean
par Scenario.node0.wlan[0].radio.receiver.errorModel snirOffset 0dB
attr unit dB
par Scenario.node0.wlan[0].radio.receiver typename "\"inet.physicallayer.wireless.ieee80211.packetlevel.Ieee80211DimensionalReceiver\""
par Scenario.node0.wlan[0].radio.receiver snirThreshold 4dB
attr unit dB
par Scenario.node0.wlan[0].radio.receiver snirThresholdMode "\"min\""
attr unit min,mean
par Scenario.node0.wlan[0].radio.receiver energyDetection -85dBm
attr unit dBm
par Scenario.node0.wlan[0].radio.receiver sensitivity -85dBm
attr unit dBm
par Scenario.node0.wlan[0].radio.receiver centerFrequency 2.412e+09Hz
attr unit Hz
par Scenario.node0.wlan[0].radio.receiver bandwidth 2.2e+07Hz
attr unit Hz
par Scenario.node0.wlan[0].radio.receiver modulation "\"BPSK\""
par Scenario.node0.wlan[0].radio.receiver opMode "\"p\""
attr enum a,b,g(erp),g(mixed),n(mixed-2.4Ghz),p,ac
par Scenario.node0.wlan[0].radio.receiver bandName "\"5.9 GHz\""
attr enum "2.4 GHz,5 GHz,5 GHz (20 MHz),5 GHz (40 MHz),5 GHz (80 MHz),5 GHz (160 MHz),5.9 GHz"
par Scenario.node0.wlan[0].radio.receiver channelNumber 3
par Scenario.node0.wlan[0].radio typename "\"inet.physicallayer.wireless.ieee80211.packetlevel.Ieee80211DimensionalRadio\""
par Scenario.node0.wlan[0].radio radioMediumModule "\"radioMedium\""
par Scenario.node0.wlan[0].radio energySourceModule "\"\""
par Scenario.node0.wlan[0].radio initialRadioMode "\"off\""
attr enum off,sleep,receiver,transmitter,transceiver
par Scenario.node0.wlan[0].radio switchingTimes "\"ms 0 0 0 0 0 0 0 0 0 0 0 0 0 0 0 0 0 0 0 0 0 0 0 0 0\""
par Scenario.node0.wlan[0].radio sendRawBytes false
par Scenario.node0.wlan[0].radio separateTransmissionParts false
par Scenario.node0.wlan[0].radio separateReceptionParts false
par Scenario.node0.wlan[0].radio displayCommunicationRange false
par Scenario.node0.wlan[0].radio displayInterferenceRange false
par Scenario.node0.wlan[0].radio centerFrequency 2.412e+09Hz
attr unit Hz
par Scenario.node0.wlan[0].radio bandwidth 1e+07Hz
attr unit Hz
par Scenario.node0.wlan[0].radio signalAnalogRepresentation "\"scalar\""
attr enum scalar,dimensional
par Scenario.node0.wlan[0].radio opMode "\"p\""
attr enum a,b,g(erp),g(mixed),n(mixed-2.4Ghz),p,ac
par Scenario.node0.wlan[0].radio bandName "\"5.9 GHz\""
attr enum "2.4 GHz,5 GHz,5 GHz (20 MHz),5 GHz (40 MHz),5 GHz (80 MHz),5 GHz (160 MHz),5.9 GHz"
par Scenario.node0.wlan[0].radio channelNumber 3
par Scenario.node0.wlan[0].radio crcMode "\"declared\""
attr enum declared,computed
statistic Scenario.node0.wlan[0].radio radioChannel:histogram
field count 1
field mean 3
field stddev -nan
field min 3
field max 3
field sum 3
field sqrsum 9
attr interpolationmode sample-hold
attr source radioChannelChanged
attr title "Radio channel, histogram"
bin	-inf	0
bin	2	0
bin	3	1
bin	4	0
scalar Scenario.node0.wlan[0].radio radioMode:count 3
attr interpolationmode sample-hold
attr source radioModeChanged
attr title "Radio mode, count"
[...]
par Scenario.node6.wlan[0].radio.receiver.errorModel corruptionMode "\"packet\""
attr enum packet,chunk,byte,bit
par Scenario.node6.wlan[0].radio.receiver.errorModel snirMode "\"min\""
attr unit min,mean
par Scenario.node6.wlan[0].radio.receiver.errorModel snirOffset 0dB
attr unit dB
par Scenario.node6.wlan[0].radio.receiver typename "\"inet.physicallayer.wireless.ieee80211.packetlevel.Ieee80211DimensionalReceiver\""
par Scenario.node6.wlan[0].radio.receiver snirThreshold 4dB
attr unit dB
par Scenario.node6.wlan[0].radio.receiver snirThresholdMode "\"min\""
attr unit min,mean
par Scenario.node6.wlan[0].radio.receiver energyDetection -85dBm
attr unit dBm
par Scenario.node6.wlan[0].radio.receiver sensitivity -85dBm
attr unit dBm
par Scenario.node6.wlan[0].radio.receiver centerFrequency 2.412e+09Hz
attr unit Hz
par Scenario.node6.wlan[0].radio.receiver bandwidth 2.2e+07Hz
attr unit Hz
par Scenario.node6.wlan[0].radio.receiver modulation "\"BPSK\""
par Scenario.node6.wlan[0].radio.receiver opMode "\"p\""
attr enum a,b,g(erp),g(mixed),n(mixed-2.4Ghz),p,ac
par Scenario.node6.wlan[0].radio.receiver bandName "\"5.9 GHz\""
attr enum "2.4 GHz,5 GHz,5 GHz (20 MHz),5 GHz (40 MHz),5 GHz (80 MHz),5 GHz (160 MHz),5.9 GHz"
par Scenario.node6.wlan[0].radio.receiver channelNumber 3
par Scenario.node6.wlan[0].radio typename "\"inet.physicallayer.wireless.ieee80211.packetlevel.Ieee80211DimensionalRadio\""
par Scenario.node6.wlan[0].radio radioMediumModule "\"radioMedium\""
par Scenario.node6.wlan[0].radio energySourceModule "\"\""
par Scenario.node6.wlan[0].radio initialRadioMode "\"off\""
attr enum off,sleep,receiver,transmitter,transceiver
par Scenario.node6.wlan[0].radio switchingTimes "\"ms 0 0 0 0 0 0 0 0 0 0 0 0 0 0 0 0 0 0 0 0 0 0 0 0 0\""
par Scenario.node6.wlan[0].radio sendRawBytes false
par Scenario.node6.wlan[0].radio separateTransmissionParts false
par Scenario.node6.wlan[0].radio separateReceptionParts false
par Scenario.node6.wlan[0].radio displayCommunicationRange false
par Scenario.node6.wlan[0].radio displayInterferenceRange false
par Scenario.node6.wlan[0].radio centerFrequency 2.412e+09Hz
attr unit Hz
par Scenario.node6.wlan[0].radio bandwidth 1e+07Hz
attr unit Hz
par Scenario.node6.wlan[0].radio signalAnalogRepresentation "\"scalar\""
attr enum scalar,dimensional
par Scenario.node6.wlan[0].radio opMode "\"p\""
attr enum a,b,g(erp),g(mixed),n(mixed-2.4Ghz),p,ac
par Scenario.node6.wlan[0].radio bandName "\"5.9 GHz\""
attr enum "2.4 GHz,5 GHz,5 GHz (20 MHz),5 GHz (40 MHz),5 GHz (80 MHz),5 GHz (160 MHz),5.9 GHz"
par Scenario.node6.wlan[0].radio channelNumber 3
par Scenario.node6.wlan[0].radio crcMode "\"declared\""
attr enum declared,computed
statistic Scenario.node6.wlan[0].radio radioChannel:histogram
field count 1
field mean 3
field stddev -nan
field min 3
field max 3
field sum 3
field sqrsum 9
attr interpolationmode sample-hold
attr source radioChannelChanged
attr title "Radio channel, histogram"
bin	-inf	0
bin	2	0
bin	3	1
bin	4	0
scalar Scenario.node6.wlan[0].radio radioMode:count 3
attr interpolationmode sample-hold
attr source radioModeChanged
attr title "Radio mode, count"
scalar Scenario.node6.wlan[0].radio receptionState:count 10
attr interpolationmode sample-hold
attr source receptionStateChanged
attr title "Radio reception state, count"
scalar Scenario.node6.wlan[0].radio transmissionState:count 0
attr interpolationmode sample-hold
attr source transmissionStateChanged
attr title "Radio transmission state, count"
statistic Scenario.node6.wlan[0].radio minSnir:histogram
field count 4
field mean 2123.5878147272
field stddev 1452.2726492505
field min 366.06185227429
field max 3420.0923326861
field sum 8494.3512589088
field sqrsum 24365788.370714
attr source minimumSnir(packetSentToUpper)
attr title "Min SNIR, histogram"
bin	-inf	0
bin	0	0
bin	50	0
bin	100	0
bin	150	0
bin	200	0
bin	250	0
bin	300	0
bin	350	1
bin	400	0
bin	450	0
bin	500	0
bin	550	0
bin	600	0
bin	650	0
bin	700	0
bin	750	0
bin	800	0
bin	850	0
bin	900	0
bin	950	0
bin	1000	0
bin	1050	0
bin	1100	0
bin	1150	0
bin	1200	0
bin	1250	0
bin	1300	0
bin	1350	0
bin	1400	0
bin	1450	0
bin	1500	1
bin	1550	0
bin	1600	0
bin	1650	0
bin	1700	0
bin	1750	0
bin	1800	0
bin	1850	0
bin	1900	0
bin	1950	0
bin	2000	0
bin	2050	0
bin	2100	0
bin	2150	0
bin	2200	0
bin	2250	0
bin	2300	0
bin	2350	0
bin	2400	0
bin	2450	0
bin	2500	0
bin	2550	0
bin	2600	0
bin	2650	0
bin	2700	0
bin	2750	0
bin	2800	0
bin	2850	0
bin	2900	0
bin	2950	0
bin	3000	0
bin	3050	0
bin	3100	0
bin	3150	0
bin	3200	1
bin	3250	0
bin	3300	0
bin	3350	0
bin	3400	1
bin	3450	0
bin	3500	0
bin	3550	0
bin	3600	0
bin	3650	0
bin	3700	0
bin	3750	0
bin	3800	0
bin	3850	0
bin	3900	0
bin	3950	0
bin	4000	0
bin	4050	0
bin	4100	0
bin	4150	0
bin	4200	0
statistic Scenario.node6.wlan[0].radio packetErrorRate:histogram
field count 4
field mean 0
field stddev 0
field min 0
field max 0
field sum 0
field sqrsum 0
attr source packetErrorRate(packetSentToUpper)
attr title "Packet error rate, histogram"
bin	-inf	0
bin	-0.5	0
bin	-0.48	0
bin	-0.46	0
bin	-0.44	0
bin	-0.42	0
bin	-0.4	0
bin	-0.38	0
bin	-0.36	0
bin	-0.34	0
bin	-0.32	0
bin	-0.3	0
bin	-0.28	0
bin	-0.26	0
bin	-0.24	0
bin	-0.22	0
bin	-0.2	0
bin	-0.18	0
bin	-0.16	0
bin	-0.14	0
bin	-0.12	0
bin	-0.1	0
bin	-0.08	0
bin	-0.06	0
bin	-0.04	0
bin	-0.02	0
bin	0	4
bin	0.02	0
bin	0.04	0
bin	0.06	0
bin	0.08	0
bin	0.1	0
bin	0.12	0
bin	0.14	0
bin	0.16	0
bin	0.18	0
bin	0.2	0
bin	0.22	0
bin	0.24	0
bin	0.26	0
bin	0.28	0
bin	0.3	0
bin	0.32	0
bin	0.34	0
bin	0.36	0
bin	0.38	0
bin	0.4	0
bin	0.42	0
bin	0.44	0
bin	0.46	0
bin	0.48	0
bin	0.5	0
statistic Scenario.node6.wlan[0].radio bitErrorRate:histogram
field count 0
field mean -nan
field stddev -nan
field min -nan
field max -nan
field sum 0
field sqrsum 0
attr source bitErrorRate(packetSentToUpper)
attr title "Bit error rate, histogram"
bin	-inf	0
bin	0	0
bin	1	0
statistic Scenario.node6.wlan[0].radio symbolErrorRate:histogram
field count 0
field mean -nan
field stddev -nan
field min -nan
field max -nan
field sum 0
field sqrsum 0
attr source symbolErrorRate(packetSentToUpper)
attr title "Symbol error rate, histogram"
bin	-inf	0
bin	0	0
bin	1	0
par Scenario.node6.wlan[0] typename "\"inet.linklayer.ieee80211.Ieee80211Interface\""
par Scenario.node6.wlan[0] displayStringTextFormat "\"%a (%i)\\n%m\""
par Scenario.node6.wlan[0] recordPcap false
par Scenario.node6.wlan[0] numPcapRecorders 0
par Scenario.node6.wlan[0] interfaceTableModule "\"Scenario.node6.interfaceTable\""
par Scenario.node6.wlan[0] energySourceModule "\"\""
par Scenario.node6.wlan[0] opMode "\"p\""
attr enum a,b,g(erp),g(mixed),n(mixed-2.4Ghz),p,ac
par Scenario.node6.wlan[0] address "\"0A-AA-00-00-00-07\""
par Scenario.node6.wlan[0] bitrate -1bps
attr unit bps
par Scenario.node6.ipv4.transportIn.channel typename "\"ned.IdealChannel\""
par Scenario.node6.ipv4.up.out[0].channel typename "\"ned.IdealChannel\""
par Scenario.node6.ipv4.lp.out[2].channel typename "\"ned.IdealChannel\""
par Scenario.node6.ipv4.ifIn.channel typename "\"ned.IdealChannel\""
par Scenario.node6.ipv4.configurator typename "\"inet.networklayer.configurator.ipv4.HostAutoConfigurator\""
par Scenario.node6.ipv4.configurator interfaceTableModule "\"Scenario.node6.interfaceTable\""
par Scenario.node6.ipv4.configurator interfaces "\"wlan0\""
par Scenario.node6.ipv4.configurator addressBase "\"10.0.0.0\""
par Scenario.node6.ipv4.configurator netmask "\"255.0.0.0\""
par Scenario.node6.ipv4.configurator mcastGroups "\"224.0.0.1\""
par Scenario.node6.ipv4.routingTable typename "\"inet.networklayer.ipv4.Ipv4RoutingTable\""
par Scenario.node6.ipv4.routingTable interfaceTableModule "\"Scenario.node6.interfaceTable\""
par Scenario.node6.ipv4.routingTable routerId "\"auto\""
par Scenario.node6.ipv4.routingTable netmaskRoutes "\"*\""
par Scenario.node6.ipv4.routingTable forwarding true
par Scenario.node6.ipv4.routingTable multicastForwarding false
par Scenario.node6.ipv4.routingTable useAdminDist false
par Scenario.node6.ipv4.routingTable routingFile "\"\""
par Scenario.node6.ipv4.natTable typename "\"inet.networklayer.ipv4.Ipv4NatTable\""
par Scenario.node6.ipv4.natTable networkProtocolModule "\"^.ip\""
par Scenario.node6.ipv4.natTable config "<config/> at content:1"
par Scenario.node6.ipv4.up typename "\"inet.common.MessageDispatcher\""
par Scenario.node6.ipv4.up displayStringTextFormat "\"processed %p pk (%l)\""
par Scenario.node6.ipv4.igmp typename "\"inet.networklayer.ipv4.Igmpv2\""
par Scenario.node6.ipv4.igmp interfaceTableModule "\"Scenario.node6.interfaceTable\""
par Scenario.node6.ipv4.igmp routingTableModule "\"Scenario.node6.ipv4.routingTable\""
par Scenario.node6.ipv4.igmp crcMode "\"declared\""
attr enum declared,computed
par Scenario.node6.ipv4.igmp enabled true
par Scenario.node6.ipv4.igmp robustnessVariable 2
par Scenario.node6.ipv4.igmp queryInterval 125s
attr unit s
par Scenario.node6.ipv4.igmp queryResponseInterval 10s
attr unit s
par Scenario.node6.ipv4.igmp groupMembershipInterval 260s
attr unit s
par Scenario.node6.ipv4.igmp otherQuerierPresentInterval 255s
attr unit s
par Scenario.node6.ipv4.igmp startupQueryInterval 31.25s
attr unit s
par Scenario.node6.ipv4.igmp startupQueryCount 2
par Scenario.node6.ipv4.igmp lastMemberQueryInterval 1s
attr unit s
par Scenario.node6.ipv4.igmp lastMemberQueryCount 2
par Scenario.node6.ipv4.igmp unsolicitedReportInterval 10s
attr unit s
par Scenario.node6.ipv4.icmp typename "\"inet.networklayer.ipv4.Icmp\""
par Scenario.node6.ipv4.icmp interfaceTableModule "\"Scenario.node6.interfaceTable\""
par Scenario.node6.ipv4.icmp routingTableModule "\"Scenario.node6.ipv4.routingTable\""
par Scenario.node6.ipv4.icmp crcMode "\"declared\""
attr enum declared,computed
par Scenario.node6.ipv4.icmp quoteLength 8B
attr unit B
par Scenario.node6.ipv4.mp typename "\"inet.common.MessageDispatcher\""
par Scenario.node6.ipv4.mp displayStringTextFormat "\"processed %p pk (%l)\""
par Scenario.node6.ipv4.ip typename "\"inet.networklayer.ipv4.Ipv4\""
par Scenario.node6.ipv4.ip interfaceTableModule "\"Scenario.node6.interfaceTable\""
par Scenario.node6.ipv4.ip routingTableModule "\"Scenario.node6.ipv4.routingTable\""
par Scenario.node6.ipv4.ip arpModule "\"Scenario.node6.ipv4.arp\""
par Scenario.node6.ipv4.ip icmpModule "\"Scenario.node6.ipv4.icmp\""
par Scenario.node6.ipv4.ip crcMode "\"declared\""
attr enum declared,computed
par Scenario.node6.ipv4.ip timeToLive 32
par Scenario.node6.ipv4.ip multicastTimeToLive 32
par Scenario.node6.ipv4.ip fragmentTimeout 60s
attr unit s
par Scenario.node6.ipv4.ip limitedBroadcast false
par Scenario.node6.ipv4.ip directBroadcastInterfaces "\"\""
scalar Scenario.node6.ipv4.ip packetDropAddressResolutionFailed:count 0
attr interpolationmode none
attr source packetDropReasonIsAddressResolutionFailed(packetDropped)
attr title "packet drop: address resolution failed, count"
scalar Scenario.node6.ipv4.ip packetDropAddressResolutionFailed:sum(packetBytes) 0
attr interpolationmode none
attr source packetDropReasonIsAddressResolutionFailed(packetDropped)
attr title "packet drop: address resolution failed, sum(packetBytes)"
scalar Scenario.node6.ipv4.ip packetDropHopLimitReached:count 0
attr interpolationmode none
attr source packetDropReasonIsHopLimitReached(packetDropped)
attr title "packet drop: hop limit reached, count"
scalar Scenario.node6.ipv4.ip packetDropHopLimitReached:sum(packetBytes) 0
attr interpolationmode none
attr source packetDropReasonIsHopLimitReached(packetDropped)
attr title "packet drop: hop limit reached, sum(packetBytes)"
scalar Scenario.node6.ipv4.ip packetDropForwardingDisabled:count 0
attr interpolationmode none
attr source packetDropReasonIsForwardingDisabled(packetDropped)
attr title "packet drop: forwarding disabled, count"
scalar Scenario.node6.ipv4.ip packetDropForwardingDisabled:sum(packetBytes) 0
attr interpolationmode none
attr source packetDropReasonIsForwardingDisabled(packetDropped)
attr title "packet drop: forwarding disabled, sum(packetBytes)"
scalar Scenario.node6.ipv4.ip packetDropNoInterfaceFound:count 0
attr interpolationmode none
attr source packetDropReasonIsNoInterfaceFound(packetDropped)
attr title "packet drop: no interface found, count"
scalar Scenario.node6.ipv4.ip packetDropNoInterfaceFound:sum(packetBytes) 0
attr interpolationmode none
attr source packetDropReasonIsNoInterfaceFound(packetDropped)
attr title "packet drop: no interface found, sum(packetBytes)"
scalar Scenario.node6.ipv4.ip packetDropNoRouteFound:count 0
attr interpolationmode none
attr source packetDropReasonIsNoRouteFound(packetDropped)
attr title "packet drop: no route found, count"
scalar Scenario.node6.ipv4.ip packetDropNoRouteFound:sum(packetBytes) 0
attr interpolationmode none
attr source packetDropReasonIsNoRouteFound(packetDropped)
attr title "packet drop: no route found, sum(packetBytes)"
scalar Scenario.node6.ipv4.ip packetDropUndefined:count 0
attr interpolationmode none
attr source packetDropReasonIsUndefined(packetDropped)
attr title "packet drop: undefined, count"
scalar Scenario.node6.ipv4.ip packetDropUndefined:sum(packetBytes) 0
attr interpolationmode none
attr source packetDropReasonIsUndefined(packetDropped)
attr title "packet drop: undefined, sum(packetBytes)"
par Scenario.node6.ipv4.arp typename "\"inet.networklayer.arp.ipv4.Arp\""
par Scenario.node6.ipv4.arp interfaceTableModule "\"Scenario.node6.interfaceTable\""
par Scenario.node6.ipv4.arp routingTableModule "\"Scenario.node6.ipv4.routingTable\""
par Scenario.node6.ipv4.arp retryTimeout 1s
attr unit s
par Scenario.node6.ipv4.arp retryCount 3
par Scenario.node6.ipv4.arp cacheTimeout 120s
attr unit s
par Scenario.node6.ipv4.arp proxyArpInterfaces "\"\""
scalar Scenario.node6.ipv4.arp arpResolutionFailed:count 0
attr title "ARP failed resolutions, count"
scalar Scenario.node6.ipv4.arp arpResolutionCompleted:count 0
attr title "ARP completed resolutions, count"
scalar Scenario.node6.ipv4.arp arpResolutionInitiated:count 0
attr title "ARP initiated resolutions, count"
scalar Scenario.node6.ipv4.arp arpReplySent:count 0
attr source arpReplySent
attr title "ARP replies sent, count"
scalar Scenario.node6.ipv4.arp arpReplySent:sum(packetBytes) 0
attr source arpReplySent
attr title "ARP replies sent, sum(packetBytes)"
scalar Scenario.node6.ipv4.arp arpRequestSent:count 0
attr source arpRequestSent
attr title "ARP request sent, count"
scalar Scenario.node6.ipv4.arp arpRequestSent:sum(packetBytes) 0
attr source arpRequestSent
attr title "ARP request sent, sum(packetBytes)"
par Scenario.node6.ipv4.lp typename "\"inet.common.MessageDispatcher\""
par Scenario.node6.ipv4.lp displayStringTextFormat "\"processed %p pk (%l)\""
par Scenario.node6.ipv4 typename "\"inet.networklayer.ipv4.Ipv4NetworkLayer\""
par Scenario.node6.ipv4 forwarding true
par Scenario.node6.ipv4 multicastForwarding false
par Scenario.node6.ipv4 interfaceTableModule "\"Scenario.node6.interfaceTable\""
par Scenario.node6.ipv4 displayStringTextFormat "\"%i\""
par Scenario.node6.nl typename "\"inet.common.MessageDispatcher\""
par Scenario.node6.nl displayStringTextFormat "\"processed %p pk (%l)\""
par Scenario.node6.udp typename "\"inet.transportlayer.udp.Udp\""
par Scenario.node6.udp interfaceTableModule "\"Scenario.node6.interfaceTable\""
par Scenario.node6.udp icmpModule "\"^.ipv4.icmp\""
par Scenario.node6.udp icmpv6Module "\"^.ipv6.icmpv6\""
par Scenario.node6.udp crcMode "\"declared\""
attr enum disabled,declared,computed
scalar Scenario.node6.udp packetReceived:count 4
attr interpolationmode none
attr source packetReceived
attr title "packets received, count"
scalar Scenario.node6.udp packetReceived:sum(packetBytes) 2032
attr interpolationmode none
attr source packetReceived
attr title "packets received, sum(packetBytes)"
scalar Scenario.node6.udp packetSent:count 0
attr interpolationmode none
attr source packetSent
attr title "packets sent, count"
scalar Scenario.node6.udp packetSent:sum(packetBytes) 0
attr interpolationmode none
attr source packetSent
attr title "packets sent, sum(packetBytes)"
scalar Scenario.node6.udp passedUpPk:count 4
attr interpolationmode none
attr source packetSentToUpper
attr title "packets passed up, count"
scalar Scenario.node6.udp droppedPkWrongPort:count 0
attr interpolationmode none
attr source packetDropReasonIsNoPortFound(packetDropped)
attr title "packets dropped (wrong port), count"
scalar Scenario.node6.udp droppedPkBadChecksum:count 0
attr interpolationmode none
attr source packetDropReasonIsIncorrectlyReceived(packetDropped)
attr title "packets dropped (checksum error), count"
par Scenario.node6.tcp typename "\"inet.transportlayer.tcp.Tcp\""
par Scenario.node6.tcp crcMode "\"declared\""
attr enum declared,computed
par Scenario.node6.tcp advertisedWindow 7504
par Scenario.node6.tcp delayedAcksEnabled false
par Scenario.node6.tcp nagleEnabled true
par Scenario.node6.tcp limitedTransmitEnabled false
par Scenario.node6.tcp increasedIWEnabled false
par Scenario.node6.tcp sackSupport false
par Scenario.node6.tcp windowScalingSupport false
par Scenario.node6.tcp windowScalingFactor -1
par Scenario.node6.tcp timestampSupport false
par Scenario.node6.tcp mss 536
par Scenario.node6.tcp msl 120s
attr unit s
par Scenario.node6.tcp tcpAlgorithmClass "\"TcpReno\""
attr enum TcpVegas,TcpWestwood,TcpNewReno,TcpReno,TcpTahoe,TcpNoCongestionControl
par Scenario.node6.tcp useDataNotification false
par Scenario.node6.tcp dupthresh 3
par Scenario.node6.tcp initialSsthresh 4294967295
par Scenario.node6.tcp stopOperationExtraTime 0s
attr unit s
par Scenario.node6.tcp stopOperationTimeout 2s
attr unit s
par Scenario.node6.tcp ecnWillingness false
par Scenario.node6.tcp dctcpGamma 0.0625
par Scenario.node6.tn typename "\"inet.common.MessageDispatcher\""
par Scenario.node6.tn displayStringTextFormat "\"processed %p pk (%l)\""
par Scenario.node6.app[0] typename "\"wireless.StaticApplication\""
par Scenario.node6.app[0] interfaceTableModule "\"Scenario.node6.interfaceTable\""
par Scenario.node6.app[0] interface "\"wlan0\""
scalar Scenario.node6.app[0] packetReceived:count 4
attr interpolationmode none
attr source packetReceived
attr title "packets received, count"
scalar Scenario.node6.app[0] packetReceived:sum(packetBytes) 2000
attr interpolationmode none
attr source packetReceived
attr title "packets received, sum(packetBytes)"
statistic Scenario.node6.app[0] rcvdPkLifetime:stats
field count 0
field mean -nan
field stddev -nan
field min -nan
field max -nan
field sum 0
field sqrsum 0
attr interpolationmode none
attr source dataAge(packetReceived)
attr title "received packet lifetime, stats"
attr unit s
scalar Scenario.node6.app[0] packetSent:count 0
attr interpolationmode none
attr source packetSent
attr title "packets sent, count"
scalar Scenario.node6.app[0] packetSent:sum(packetBytes) 0
attr interpolationmode none
attr source packetSent
attr title "packets sent, sum(packetBytes)"
par Scenario.node6.at typename "\"inet.common.MessageDispatcher\""
par Scenario.node6.at displayStringTextFormat "\"processed %p pk (%l)\""
par Scenario.node6 typename "\"wireless.StaticNode\""
par Scenario.node6 hasStatus false
par Scenario.node6 osgModel "\"\""
par Scenario.node6 osgModelColor "\"\""
par Scenario.node6 canvasImage "\"\""
par Scenario.node6 canvasImageColor "\"\""
par Scenario.node6 recordPcap false
par Scenario.node6 numPcapRecorders 0
par Scenario.node6 numLoInterfaces 1
par Scenario.node6 numWlanInterfaces 1
par Scenario.node6 numEthInterfaces 0
par Scenario.node6 numPppInterfaces 0
par Scenario.node6 numTunInterfaces 0
par Scenario.node6 numVirtInterfaces 0
par Scenario.node6 hasIpv4 true
par Scenario.node6 hasIpv6 false
par Scenario.node6 hasGn false
par Scenario.node6 forwarding true
par Scenario.node6 multicastForwarding false
par Scenario.node6 hasUdp true
par Scenario.node6 hasTcp true
par Scenario.node6 hasSctp false
par Scenario.node6 numApps 1
par Scenario typename "\"wireless.simulations.static.Scenario\""
par Scenario beaconPeriod 0.1

